*SPEF "ieee 1481-1999"
*DESIGN "lab1"
*DATE "20:15:19 Monday May 26, 2025"
*VENDOR "The OpenROAD Project"
*PROGRAM "OpenROAD"
*VERSION "b16bda7e82721d10566ff7e2b68f1ff0be9f9e38"
*DESIGN_FLOW "NAME_SCOPE LOCAL" "PIN_CAP NONE"
*DIVIDER /
*DELIMITER :
*BUS_DELIMITER []
*T_UNIT 1 NS
*C_UNIT 1 PF
*R_UNIT 1 OHM
*L_UNIT 1 HENRY

*NAME_MAP
*3 in[0]
*4 in[1]
*5 in[2]
*6 in[3]
*7 in[4]
*8 in[5]
*9 in[6]
*10 in[7]
*11 out[0]
*12 out[1]
*13 out[2]
*14 out[3]
*15 out[4]
*16 out[5]
*17 out[6]
*18 out[7]
*19 _00_
*20 _01_
*21 _02_
*22 _03_
*23 _04_
*24 _05_
*25 _06_
*26 _07_
*27 _08_
*28 _09_
*29 net1
*30 net10
*31 net11
*32 net12
*33 net13
*34 net14
*35 net15
*36 net16
*37 net2
*38 net3
*39 net4
*40 net5
*41 net6
*42 net7
*43 net8
*44 net9
*45 FILLER_0_0_21
*46 FILLER_0_0_27
*47 FILLER_0_0_29
*48 FILLER_0_0_41
*49 FILLER_0_0_47
*50 FILLER_0_0_55
*51 FILLER_0_0_57
*52 FILLER_0_0_69
*53 FILLER_0_0_9
*54 FILLER_0_1_18
*55 FILLER_0_1_30
*56 FILLER_0_1_42
*57 FILLER_0_1_54
*58 FILLER_0_1_57
*59 FILLER_0_1_6
*60 FILLER_0_1_69
*61 FILLER_0_2_11
*62 FILLER_0_2_23
*63 FILLER_0_2_27
*64 FILLER_0_2_29
*65 FILLER_0_2_3
*66 FILLER_0_2_33
*67 FILLER_0_2_37
*68 FILLER_0_2_49
*69 FILLER_0_2_61
*70 FILLER_0_2_73
*71 FILLER_0_3_15
*72 FILLER_0_3_27
*73 FILLER_0_3_3
*74 FILLER_0_3_39
*75 FILLER_0_3_51
*76 FILLER_0_3_55
*77 FILLER_0_3_60
*78 FILLER_0_3_72
*79 FILLER_0_3_80
*80 FILLER_0_4_18
*81 FILLER_0_4_27
*82 FILLER_0_4_29
*83 FILLER_0_4_41
*84 FILLER_0_4_53
*85 FILLER_0_4_6
*86 FILLER_0_4_65
*87 FILLER_0_5_15
*88 FILLER_0_5_27
*89 FILLER_0_5_3
*90 FILLER_0_5_39
*91 FILLER_0_5_43
*92 FILLER_0_5_51
*93 FILLER_0_5_55
*94 FILLER_0_5_57
*95 FILLER_0_5_63
*96 FILLER_0_5_78
*97 FILLER_0_6_18
*98 FILLER_0_6_26
*99 FILLER_0_6_29
*100 FILLER_0_6_41
*101 FILLER_0_6_53
*102 FILLER_0_6_6
*103 FILLER_0_6_66
*104 FILLER_0_6_73
*105 FILLER_0_7_15
*106 FILLER_0_7_27
*107 FILLER_0_7_3
*108 FILLER_0_7_39
*109 FILLER_0_7_51
*110 FILLER_0_7_55
*111 FILLER_0_7_62
*112 FILLER_0_7_74
*113 FILLER_0_8_21
*114 FILLER_0_8_27
*115 FILLER_0_8_32
*116 FILLER_0_8_44
*117 FILLER_0_8_55
*118 FILLER_0_8_63
*119 FILLER_0_8_79
*120 FILLER_0_8_9
*121 FILLER_0_9_22
*122 FILLER_0_9_29
*123 FILLER_0_9_41
*124 FILLER_0_9_53
*125 FILLER_0_9_57
*126 FILLER_0_9_65
*127 FILLER_0_9_80
*128 PHY_EDGE_ROW_0_Left_10
*129 PHY_EDGE_ROW_0_Right_0
*130 PHY_EDGE_ROW_1_Left_11
*131 PHY_EDGE_ROW_1_Right_1
*132 PHY_EDGE_ROW_2_Left_12
*133 PHY_EDGE_ROW_2_Right_2
*134 PHY_EDGE_ROW_3_Left_13
*135 PHY_EDGE_ROW_3_Right_3
*136 PHY_EDGE_ROW_4_Left_14
*137 PHY_EDGE_ROW_4_Right_4
*138 PHY_EDGE_ROW_5_Left_15
*139 PHY_EDGE_ROW_5_Right_5
*140 PHY_EDGE_ROW_6_Left_16
*141 PHY_EDGE_ROW_6_Right_6
*142 PHY_EDGE_ROW_7_Left_17
*143 PHY_EDGE_ROW_7_Right_7
*144 PHY_EDGE_ROW_8_Left_18
*145 PHY_EDGE_ROW_8_Right_8
*146 PHY_EDGE_ROW_9_Left_19
*147 PHY_EDGE_ROW_9_Right_9
*148 TAP_TAPCELL_ROW_0_20
*149 TAP_TAPCELL_ROW_0_21
*150 TAP_TAPCELL_ROW_1_22
*151 TAP_TAPCELL_ROW_2_23
*152 TAP_TAPCELL_ROW_3_24
*153 TAP_TAPCELL_ROW_4_25
*154 TAP_TAPCELL_ROW_5_26
*155 TAP_TAPCELL_ROW_6_27
*156 TAP_TAPCELL_ROW_7_28
*157 TAP_TAPCELL_ROW_8_29
*158 TAP_TAPCELL_ROW_9_30
*159 TAP_TAPCELL_ROW_9_31
*160 _10_
*161 _11_
*162 _12_
*163 _13_
*164 _14_
*165 _15_
*166 _16_
*167 _17_
*168 _18_
*169 _19_
*170 _20_
*171 _21_
*172 _22_
*173 _23_
*174 _24_
*175 _25_
*176 _26_
*177 _27_
*178 input1
*179 input2
*180 input3
*181 input4
*182 input5
*183 input6
*184 input7
*185 input8
*186 output10
*187 output11
*188 output12
*189 output13
*190 output14
*191 output15
*192 output16
*193 output9

*PORTS
in[0] I
in[1] I
in[2] I
in[3] I
in[4] I
in[5] I
in[6] I
in[7] I
out[0] O
out[1] O
out[2] O
out[3] O
out[4] O
out[5] O
out[6] O
out[7] O

*D_NET *3 0.00109543
*CONN
*P in[0] I
*I *178:A I *D sky130_fd_sc_hd__dlymetal6s2s_1
*CAP
1 in[0] 0.000495134
2 *178:A 0.000495134
3 *178:A *179:A 0.000105159
*RES
1 in[0] *178:A 10.3385 
*END

*D_NET *4 0.000908655
*CONN
*P in[1] I
*I *179:A I *D sky130_fd_sc_hd__buf_1
*CAP
1 in[1] 0.000401748
2 *179:A 0.000401748
3 *179:A *170:B 0
4 *179:A *170:D 0
5 *179:A *180:A 0
6 *178:A *179:A 0.000105159
*RES
1 in[1] *179:A 8.16177 
*END

*D_NET *5 0.000740774
*CONN
*P in[2] I
*I *180:A I *D sky130_fd_sc_hd__buf_1
*CAP
1 in[2] 0.000370387
2 *180:A 0.000370387
3 *180:A *181:A 0
4 *179:A *180:A 0
*RES
1 in[2] *180:A 8.2293 
*END

*D_NET *6 0.000475631
*CONN
*P in[3] I
*I *181:A I *D sky130_fd_sc_hd__buf_1
*CAP
1 in[3] 0.000237816
2 *181:A 0.000237816
3 *181:A *182:A 0
4 *181:A *41:21 0
5 *180:A *181:A 0
*RES
1 in[3] *181:A 5.35677 
*END

*D_NET *7 0.000528128
*CONN
*P in[4] I
*I *182:A I *D sky130_fd_sc_hd__buf_1
*CAP
1 in[4] 0.000264064
2 *182:A 0.000264064
3 *182:A *183:A 0
4 *181:A *182:A 0
*RES
1 in[4] *182:A 6.8343 
*END

*D_NET *8 0.000587444
*CONN
*P in[5] I
*I *183:A I *D sky130_fd_sc_hd__buf_1
*CAP
1 in[5] 0.000293722
2 *183:A 0.000293722
3 *183:A *184:A 0
4 *182:A *183:A 0
*RES
1 in[5] *183:A 7.3443 
*END

*D_NET *9 0.000523624
*CONN
*P in[6] I
*I *184:A I *D sky130_fd_sc_hd__clkbuf_1
*CAP
1 in[6] 0.000261812
2 *184:A 0.000261812
3 *184:A *185:A 0
4 *183:A *184:A 0
*RES
1 in[6] *184:A 6.8343 
*END

*D_NET *10 0.00105769
*CONN
*P in[7] I
*I *185:A I *D sky130_fd_sc_hd__buf_1
*CAP
1 in[7] 0.000528844
2 *185:A 0.000528844
3 *184:A *185:A 0
*RES
1 in[7] *185:A 9.61157 
*END

*D_NET *11 0.00148405
*CONN
*P out[0] O
*I *193:X O *D sky130_fd_sc_hd__buf_2
*CAP
1 out[0] 0.000739942
2 *193:X 0.000739942
3 out[0] out[1] 0
4 out[0] *189:A 4.1652e-06
*RES
1 *193:X out[0] 10.0777 
*END

*D_NET *12 0.000985183
*CONN
*P out[1] O
*I *186:X O *D sky130_fd_sc_hd__buf_2
*CAP
1 out[1] 0.000449371
2 *186:X 0.000449371
3 out[1] out[2] 0
4 out[1] *172:A 8.64421e-05
5 out[0] out[1] 0
*RES
1 *186:X out[1] 6.4431 
*END

*D_NET *13 0.000571441
*CONN
*P out[2] O
*I *187:X O *D sky130_fd_sc_hd__buf_2
*CAP
1 out[2] 0.000254477
2 *187:X 0.000254477
3 out[2] out[3] 0
4 out[2] *190:A 6.24871e-05
5 out[1] out[2] 0
*RES
1 *187:X out[2] 5.41503 
*END

*D_NET *14 0.000770704
*CONN
*P out[3] O
*I *188:X O *D sky130_fd_sc_hd__buf_2
*CAP
1 out[3] 0.000363337
2 *188:X 0.000363337
3 out[3] out[4] 0
4 out[3] *188:A 5.83121e-06
5 out[3] *189:A 2.05641e-05
6 out[3] *190:A 1.7635e-05
7 out[2] out[3] 0
*RES
1 *188:X out[3] 5.81657 
*END

*D_NET *15 0.000483707
*CONN
*P out[4] O
*I *189:X O *D sky130_fd_sc_hd__buf_2
*CAP
1 out[4] 0.000231572
2 *189:X 0.000231572
3 out[4] out[5] 0
4 out[4] *190:A 2.05641e-05
5 out[3] out[4] 0
*RES
1 *189:X out[4] 4.90503 
*END

*D_NET *16 0.000477351
*CONN
*P out[5] O
*I *190:X O *D sky130_fd_sc_hd__buf_2
*CAP
1 out[5] 0.000238675
2 *190:X 0.000238675
3 out[5] out[6] 0
4 out[4] out[5] 0
*RES
1 *190:X out[5] 4.90503 
*END

*D_NET *17 0.000450588
*CONN
*P out[6] O
*I *191:X O *D sky130_fd_sc_hd__buf_2
*CAP
1 out[6] 0.000225294
2 *191:X 0.000225294
3 out[6] out[7] 0
4 out[5] out[6] 0
*RES
1 *191:X out[6] 4.90503 
*END

*D_NET *18 0.00107957
*CONN
*P out[7] O
*I *192:X O *D sky130_fd_sc_hd__buf_2
*CAP
1 out[7] 0.000539787
2 *192:X 0.000539787
3 out[6] out[7] 0
*RES
1 *192:X out[7] 9.2181 
*END

*D_NET *19 0.00467756
*CONN
*I *176:A I *D sky130_fd_sc_hd__nor2_1
*I *161:B I *D sky130_fd_sc_hd__xnor2_1
*I *160:Y O *D sky130_fd_sc_hd__nor2_1
*CAP
1 *176:A 0.000451226
2 *161:B 2.53918e-06
3 *160:Y 0.000480598
4 *19:12 0.000934363
5 *161:B *160:A 2.10433e-05
6 *176:A *160:A 0.000152042
7 *176:A *167:A 0.000751994
8 *176:A *169:A 0.000495205
9 *176:A *169:B 0.000191221
10 *176:A *173:A 4.62396e-05
11 *176:A *186:A 7.22354e-05
12 *176:A *38:10 0.000732634
13 *19:12 *160:A 8.19994e-05
14 *19:12 *160:B 0.000264225
*RES
1 *160:Y *19:12 10.4025 
2 *19:12 *161:B 3.8325 
3 *19:12 *176:A 19.8975 
*END

*D_NET *20 0.0027134
*CONN
*I *164:A_N I *D sky130_fd_sc_hd__and2b_1
*I *162:X O *D sky130_fd_sc_hd__o31a_1
*CAP
1 *164:A_N 0.000904709
2 *162:X 0.000904709
3 *164:A_N *162:A3 0.000614944
4 *164:A_N *174:A 4.82863e-05
5 *164:A_N *21:23 0.000187275
6 *164:A_N *21:27 5.34747e-05
*RES
1 *162:X *164:A_N 23.97 
*END

*D_NET *21 0.00720477
*CONN
*I *167:B I *D sky130_fd_sc_hd__and2_1
*I *164:B I *D sky130_fd_sc_hd__and2b_1
*I *170:D I *D sky130_fd_sc_hd__or4_1
*I *171:A3 I *D sky130_fd_sc_hd__o31ai_1
*I *166:B I *D sky130_fd_sc_hd__nor2_1
*I *163:X O *D sky130_fd_sc_hd__or4_2
*CAP
1 *167:B 0.000335756
2 *164:B 0
3 *170:D 0.000443032
4 *171:A3 0.000308285
5 *166:B 0.000213928
6 *163:X 0
7 *21:27 0.00101868
8 *21:23 0.000414784
9 *21:10 0.00069949
10 *21:4 0.000673901
11 *166:B *23:10 0.000336442
12 *167:B *162:A1 2.03578e-05
13 *167:B *162:B1 0.000119784
14 *167:B *163:A 5.83121e-06
15 *167:B *163:B 7.40446e-05
16 *167:B *193:A 0
17 *167:B *29:16 0.00015356
18 *167:B *29:22 0
19 *167:B *29:24 4.82919e-05
20 *167:B *37:16 0.000139067
21 *170:D *170:A 8.74345e-06
22 *170:D *170:C 0.000817789
23 *171:A3 *166:A 7.11235e-06
24 *171:A3 *170:C 0.000327981
25 *171:A3 *171:A2 3.64998e-06
26 *171:A3 *172:B 0.000161467
27 *21:10 *162:B1 3.23663e-05
28 *21:10 *163:A 1.91597e-05
29 *21:10 *163:B 8.40213e-05
30 *21:10 *163:C 8.65905e-05
31 *21:10 *23:10 0.000109995
32 *21:23 *165:A 0.000279787
33 *21:27 *40:34 2.01259e-05
34 *164:A_N *21:23 0.000187275
35 *164:A_N *21:27 5.34747e-05
36 *179:A *170:D 0
*RES
1 *163:X *21:4 1.6 
2 *21:4 *21:10 7.97 
3 *21:10 *166:B 8.295 
4 *21:10 *21:23 6.245 
5 *21:23 *21:27 5.9 
6 *21:27 *171:A3 9.36 
7 *21:27 *170:D 13.65 
8 *21:23 *164:B 1.6 
9 *21:4 *167:B 13.22 
*END

*D_NET *22 0.00352845
*CONN
*I *165:A I *D sky130_fd_sc_hd__clkbuf_1
*I *164:X O *D sky130_fd_sc_hd__and2b_1
*CAP
1 *165:A 0.00104393
2 *164:X 0.00104393
3 *165:A *161:A 0.000493426
4 *165:A *187:A 9.05314e-05
5 *165:A *23:10 0.000149741
6 *165:A *39:12 0.000427094
7 *21:23 *165:A 0.000279787
*RES
1 *164:X *165:A 26.22 
*END

*D_NET *23 0.00614134
*CONN
*I *168:A I *D sky130_fd_sc_hd__nor2_1
*I *169:B I *D sky130_fd_sc_hd__xnor2_1
*I *166:Y O *D sky130_fd_sc_hd__nor2_1
*CAP
1 *168:A 0.00018198
2 *169:B 0.000717756
3 *166:Y 0.000654296
4 *23:10 0.00155403
5 *168:A *168:B 0.00054624
6 *168:A *186:A 9.5751e-05
7 *168:A *189:A 2.30292e-05
8 *168:A *25:14 0.000622334
9 *168:A *29:16 1.5567e-05
10 *169:B *167:A 0.000489506
11 *169:B *169:A 0.0003416
12 *169:B *192:A 4.8854e-05
13 *23:10 *172:B 4.77769e-05
14 *23:10 *176:B 0
15 *23:10 *186:A 1.52184e-05
16 *23:10 *39:12 0
17 *165:A *23:10 0.000149741
18 *166:B *23:10 0.000336442
19 *176:A *169:B 0.000191221
20 *21:10 *23:10 0.000109995
*RES
1 *166:Y *23:10 16.14 
2 *23:10 *169:B 18.615 
3 *23:10 *168:A 11.22 
*END

*D_NET *24 0.00288771
*CONN
*I *168:B I *D sky130_fd_sc_hd__nor2_1
*I *167:X O *D sky130_fd_sc_hd__and2_1
*CAP
1 *168:B 0.000241044
2 *167:X 0.000241044
3 *168:B *186:A 0.00054457
4 *168:B *189:A 0.0011208
5 *168:B *25:14 1.33285e-05
6 *168:B *29:16 0.000180682
7 *168:A *168:B 0.00054624
*RES
1 *167:X *168:B 19.455 
*END

*D_NET *25 0.00503363
*CONN
*I *172:A I *D sky130_fd_sc_hd__and2_1
*I *174:B I *D sky130_fd_sc_hd__xor2_1
*I *170:X O *D sky130_fd_sc_hd__or4_1
*CAP
1 *172:A 0.00019324
2 *174:B 0.000148711
3 *170:X 0.000830309
4 *25:14 0.00117226
5 *172:A *172:B 8.65961e-05
6 *172:A *173:A 5.51783e-05
7 *172:A *186:A 6.6052e-05
8 *174:B *172:B 0
9 *174:B *173:A 0
10 *174:B *189:A 8.84407e-05
11 *174:B *192:A 9.50342e-06
12 *25:14 *173:A 0.000197901
13 *25:14 *186:A 0.00124888
14 *25:14 *189:A 0.000118642
15 *25:14 *193:A 8.41307e-05
16 *25:14 *29:16 1.16854e-05
17 out[1] *172:A 8.64421e-05
18 *168:A *25:14 0.000622334
19 *168:B *25:14 1.33285e-05
*RES
1 *170:X *25:14 23.93 
2 *25:14 *174:B 8 
3 *25:14 *172:A 5.515 
*END

*D_NET *26 0.00603697
*CONN
*I *172:B I *D sky130_fd_sc_hd__and2_1
*I *171:Y O *D sky130_fd_sc_hd__o31ai_1
*CAP
1 *172:B 0.00218986
2 *171:Y 0.00218986
3 *172:B *166:A 0.000322445
4 *172:B *171:B1 9.28507e-05
5 *172:B *173:A 5.83121e-06
6 *172:B *189:A 0.000829776
7 *172:B *190:A 0.000110499
8 *172:B *192:A 0
9 *171:A3 *172:B 0.000161467
10 *172:A *172:B 8.65961e-05
11 *174:B *172:B 0
12 *23:10 *172:B 4.77769e-05
*RES
1 *171:Y *172:B 45 
*END

*D_NET *27 0.00280595
*CONN
*I *173:A I *D sky130_fd_sc_hd__clkbuf_1
*I *172:X O *D sky130_fd_sc_hd__and2_1
*CAP
1 *173:A 0.000489941
2 *172:X 0.000489941
3 *173:A *160:A 0.000358144
4 *173:A *174:A 0
5 *173:A *186:A 0.000211111
6 *173:A *189:A 0.00030822
7 *173:A *192:A 0
8 *173:A *193:A 0.000643445
9 *172:A *173:A 5.51783e-05
10 *172:B *173:A 5.83121e-06
11 *174:B *173:A 0
12 *176:A *173:A 4.62396e-05
13 *25:14 *173:A 0.000197901
*RES
1 *172:X *173:A 20.445 
*END

*D_NET *28 0.00251766
*CONN
*I *176:B I *D sky130_fd_sc_hd__nor2_1
*I *175:X O *D sky130_fd_sc_hd__and2_1
*CAP
1 *176:B 0.00075731
2 *175:X 0.00075731
3 *176:B *37:12 0.000694324
4 *176:B *37:40 0.000308713
5 *23:10 *176:B 0
*RES
1 *175:X *176:B 17.655 
*END

*D_NET *29 0.0100102
*CONN
*I *175:B I *D sky130_fd_sc_hd__and2_1
*I *160:B I *D sky130_fd_sc_hd__nor2_1
*I *177:A I *D sky130_fd_sc_hd__clkbuf_1
*I *162:A2 I *D sky130_fd_sc_hd__o31a_1
*I *163:B I *D sky130_fd_sc_hd__or4_2
*I *178:X O *D sky130_fd_sc_hd__dlymetal6s2s_1
*CAP
1 *175:B 2.09076e-05
2 *160:B 0.000287533
3 *177:A 0.000152624
4 *162:A2 0.000184794
5 *163:B 0.000114142
6 *178:X 0.00155322
7 *29:35 0.000428261
8 *29:24 0.000423078
9 *29:22 0.000710527
10 *29:16 0.00177903
11 *160:B *160:A 0.000494018
12 *162:A2 *162:A1 0.000305626
13 *162:A2 *162:B1 0.000305626
14 *175:B *37:40 4.66108e-05
15 *29:16 *169:A 0.000112123
16 *29:16 *170:B 1.98477e-05
17 *29:16 *189:A 0.00119741
18 *29:16 *193:A 0
19 *29:16 *37:40 0.000273872
20 *29:22 *162:B1 0
21 *29:22 *193:A 0.000430545
22 *29:24 *162:B1 1.03323e-05
23 *29:35 *162:A1 0.000162176
24 *29:35 *162:B1 0.000165841
25 *167:B *163:B 7.40446e-05
26 *167:B *29:16 0.00015356
27 *167:B *29:22 0
28 *167:B *29:24 4.82919e-05
29 *168:A *29:16 1.5567e-05
30 *168:B *29:16 0.000180682
31 *19:12 *160:B 0.000264225
32 *21:10 *163:B 8.40213e-05
33 *25:14 *29:16 1.16854e-05
*RES
1 *178:X *29:16 29.06 
2 *29:16 *29:22 8.95 
3 *29:22 *29:24 2.52 
4 *29:24 *163:B 3.085 
5 *29:24 *29:35 5.42 
6 *29:35 *162:A2 10.08 
7 *29:35 *177:A 5.775 
8 *29:22 *160:B 8.545 
9 *29:16 *175:B 2.05 
*END

*D_NET *30 0.00379424
*CONN
*I *186:A I *D sky130_fd_sc_hd__buf_2
*I *176:Y O *D sky130_fd_sc_hd__nor2_1
*CAP
1 *186:A 0.000456405
2 *176:Y 0.000456405
3 *186:A *167:A 0.000124895
4 *186:A *189:A 0.000193701
5 *186:A *193:A 0.000309019
6 *168:A *186:A 9.5751e-05
7 *168:B *186:A 0.00054457
8 *172:A *186:A 6.6052e-05
9 *173:A *186:A 0.000211111
10 *176:A *186:A 7.22354e-05
11 *23:10 *186:A 1.52184e-05
12 *25:14 *186:A 0.00124888
*RES
1 *176:Y *186:A 28.015 
*END

*D_NET *31 0.00128542
*CONN
*I *187:A I *D sky130_fd_sc_hd__buf_2
*I *161:Y O *D sky130_fd_sc_hd__xnor2_1
*CAP
1 *187:A 0.000418366
2 *161:Y 0.000418366
3 *187:A *188:A 7.49574e-05
4 *187:A *189:A 0.000141599
5 *187:A *190:A 0.000141599
6 *165:A *187:A 9.05314e-05
*RES
1 *161:Y *187:A 13.425 
*END

*D_NET *32 0.000368167
*CONN
*I *188:A I *D sky130_fd_sc_hd__buf_2
*I *165:X O *D sky130_fd_sc_hd__clkbuf_1
*CAP
1 *188:A 0.000143689
2 *165:X 0.000143689
3 out[3] *188:A 5.83121e-06
4 *187:A *188:A 7.49574e-05
*RES
1 *165:X *188:A 5.645 
*END

*D_NET *33 0.0067781
*CONN
*I *189:A I *D sky130_fd_sc_hd__buf_2
*I *168:Y O *D sky130_fd_sc_hd__nor2_1
*CAP
1 *189:A 0.00112853
2 *168:Y 0.00112853
3 *189:A *190:A 0.000284237
4 *189:A *193:A 0.000190462
5 out[0] *189:A 4.1652e-06
6 out[3] *189:A 2.05641e-05
7 *168:A *189:A 2.30292e-05
8 *168:B *189:A 0.0011208
9 *172:B *189:A 0.000829776
10 *173:A *189:A 0.00030822
11 *174:B *189:A 8.84407e-05
12 *186:A *189:A 0.000193701
13 *187:A *189:A 0.000141599
14 *25:14 *189:A 0.000118642
15 *29:16 *189:A 0.00119741
*RES
1 *168:Y *189:A 42.82 
*END

*D_NET *34 0.00177207
*CONN
*I *190:A I *D sky130_fd_sc_hd__buf_2
*I *169:Y O *D sky130_fd_sc_hd__xnor2_1
*CAP
1 *190:A 0.000567525
2 *169:Y 0.000567525
3 out[2] *190:A 6.24871e-05
4 out[3] *190:A 1.7635e-05
5 out[4] *190:A 2.05641e-05
6 *172:B *190:A 0.000110499
7 *187:A *190:A 0.000141599
8 *189:A *190:A 0.000284237
*RES
1 *169:Y *190:A 19.485 
*END

*D_NET *35 0.00216778
*CONN
*I *191:A I *D sky130_fd_sc_hd__buf_2
*I *173:X O *D sky130_fd_sc_hd__clkbuf_1
*CAP
1 *191:A 0.00083431
2 *173:X 0.00083431
3 *191:A *162:B1 0
4 *191:A *174:A 0.000197826
5 *191:A *192:A 0.000160314
6 *191:A *193:A 0.000141022
*RES
1 *173:X *191:A 22.38 
*END

*D_NET *36 0.0028092
*CONN
*I *192:A I *D sky130_fd_sc_hd__buf_2
*I *174:X O *D sky130_fd_sc_hd__xor2_1
*CAP
1 *192:A 0.000944824
2 *174:X 0.000944824
3 *192:A *174:A 0.000700883
4 *169:B *192:A 4.8854e-05
5 *172:B *192:A 0
6 *173:A *192:A 0
7 *174:B *192:A 9.50342e-06
8 *191:A *192:A 0.000160314
*RES
1 *174:X *192:A 26.16 
*END

*D_NET *37 0.00965744
*CONN
*I *160:A I *D sky130_fd_sc_hd__nor2_1
*I *175:A I *D sky130_fd_sc_hd__and2_1
*I *163:A I *D sky130_fd_sc_hd__or4_2
*I *162:A1 I *D sky130_fd_sc_hd__o31a_1
*I *179:X O *D sky130_fd_sc_hd__buf_1
*CAP
1 *160:A 0.000487274
2 *175:A 0
3 *163:A 2.46424e-05
4 *162:A1 0.000294514
5 *179:X 0.000645583
6 *37:40 0.000638031
7 *37:16 0.000445708
8 *37:12 0.000922891
9 *160:A *174:A 0
10 *160:A *193:A 1.01661e-05
11 *162:A1 *162:A3 0.000902946
12 *162:A1 *38:12 2.92496e-05
13 *163:A *162:B1 8.40213e-05
14 *163:A *163:C 4.82863e-05
15 *37:12 *169:A 0.00155962
16 *37:12 *170:B 3.68769e-05
17 *37:16 *169:A 2.92496e-05
18 *37:16 *38:10 0.000229897
19 *37:16 *38:12 0.000149766
20 *37:40 *169:A 3.57349e-05
21 *160:B *160:A 0.000494018
22 *161:B *160:A 2.10433e-05
23 *162:A2 *162:A1 0.000305626
24 *167:B *162:A1 2.03578e-05
25 *167:B *163:A 5.83121e-06
26 *167:B *37:16 0.000139067
27 *173:A *160:A 0.000358144
28 *175:B *37:40 4.66108e-05
29 *176:A *160:A 0.000152042
30 *176:B *37:12 0.000694324
31 *176:B *37:40 0.000308713
32 *19:12 *160:A 8.19994e-05
33 *21:10 *163:A 1.91597e-05
34 *29:16 *37:40 0.000273872
35 *29:35 *162:A1 0.000162176
*RES
1 *179:X *37:12 22.01 
2 *37:12 *37:16 6.44 
3 *37:16 *162:A1 14.61 
4 *37:16 *163:A 4.395 
5 *37:12 *37:40 4.26 
6 *37:40 *175:A 1.6 
7 *37:40 *160:A 16.685 
*END

*D_NET *38 0.0075344
*CONN
*I *161:A I *D sky130_fd_sc_hd__xnor2_1
*I *163:C I *D sky130_fd_sc_hd__or4_2
*I *162:A3 I *D sky130_fd_sc_hd__o31a_1
*I *180:X O *D sky130_fd_sc_hd__buf_1
*CAP
1 *161:A 0.000214208
2 *163:C 1.51011e-05
3 *162:A3 0.000328287
4 *180:X 0.00124792
5 *38:12 0.00044725
6 *38:10 0.00156599
7 *162:A3 *174:A 0.000158072
8 *163:C *162:B1 2.30292e-05
9 *38:10 *167:A 0.000203693
10 *38:10 *169:A 4.31189e-05
11 *38:12 *39:12 0
12 *162:A1 *162:A3 0.000902946
13 *162:A1 *38:12 2.92496e-05
14 *163:A *163:C 4.82863e-05
15 *164:A_N *162:A3 0.000614944
16 *165:A *161:A 0.000493426
17 *176:A *38:10 0.000732634
18 *21:10 *163:C 8.65905e-05
19 *37:16 *38:10 0.000229897
20 *37:16 *38:12 0.000149766
*RES
1 *180:X *38:10 21.18 
2 *38:10 *38:12 2.145 
3 *38:12 *162:A3 15.135 
4 *38:12 *163:C 4.395 
5 *38:10 *161:A 8.19 
*END

*D_NET *39 0.0050468
*CONN
*I *162:B1 I *D sky130_fd_sc_hd__o31a_1
*I *163:D I *D sky130_fd_sc_hd__or4_2
*I *181:X O *D sky130_fd_sc_hd__buf_1
*CAP
1 *162:B1 0.000675042
2 *163:D 0
3 *181:X 0.00126431
4 *39:12 0.00193936
5 *162:B1 *193:A 0
6 *162:A2 *162:B1 0.000305626
7 *163:A *162:B1 8.40213e-05
8 *163:C *162:B1 2.30292e-05
9 *165:A *39:12 0.000427094
10 *167:B *162:B1 0.000119784
11 *191:A *162:B1 0
12 *21:10 *162:B1 3.23663e-05
13 *23:10 *39:12 0
14 *29:22 *162:B1 0
15 *29:24 *162:B1 1.03323e-05
16 *29:35 *162:B1 0.000165841
17 *38:12 *39:12 0
*RES
1 *181:X *39:12 20.285 
2 *39:12 *163:D 1.6 
3 *39:12 *162:B1 19.625 
*END

*D_NET *40 0.00739475
*CONN
*I *170:A I *D sky130_fd_sc_hd__or4_1
*I *167:A I *D sky130_fd_sc_hd__and2_1
*I *171:A1 I *D sky130_fd_sc_hd__o31ai_1
*I *166:A I *D sky130_fd_sc_hd__nor2_1
*I *182:X O *D sky130_fd_sc_hd__buf_1
*CAP
1 *170:A 9.43567e-05
2 *167:A 0.000517463
3 *171:A1 0
4 *166:A 0.000599559
5 *182:X 0
6 *40:34 0.00134475
7 *40:10 0.000773531
8 *40:4 0.000906902
9 *166:A *171:A2 6.6537e-05
10 *166:A *171:B1 0.00016031
11 *170:A *170:C 8.20295e-05
12 *40:10 *41:10 3.75882e-06
13 *40:10 *41:21 0.000120516
14 *40:34 *170:C 0.000796519
15 *169:B *167:A 0.000489506
16 *170:D *170:A 8.74345e-06
17 *171:A3 *166:A 7.11235e-06
18 *172:B *166:A 0.000322445
19 *176:A *167:A 0.000751994
20 *186:A *167:A 0.000124895
21 *21:27 *40:34 2.01259e-05
22 *38:10 *167:A 0.000203693
*RES
1 *182:X *40:4 1.6 
2 *40:4 *40:10 7.675 
3 *40:10 *166:A 12.43 
4 *40:10 *171:A1 1.6 
5 *40:4 *40:34 15.1625 
6 *40:34 *167:A 18.6975 
7 *40:34 *170:A 5.6175 
*END

*D_NET *41 0.00794226
*CONN
*I *170:B I *D sky130_fd_sc_hd__or4_1
*I *169:A I *D sky130_fd_sc_hd__xnor2_1
*I *171:A2 I *D sky130_fd_sc_hd__o31ai_1
*I *183:X O *D sky130_fd_sc_hd__buf_1
*CAP
1 *170:B 0.000374586
2 *169:A 0.00133089
3 *171:A2 2.5977e-05
4 *183:X 0.000200527
5 *41:21 0.00231071
6 *41:10 0.000831738
7 *166:A *171:A2 6.6537e-05
8 *169:B *169:A 0.0003416
9 *171:A3 *171:A2 3.64998e-06
10 *176:A *169:A 0.000495205
11 *179:A *170:B 0
12 *181:A *41:21 0
13 *29:16 *169:A 0.000112123
14 *29:16 *170:B 1.98477e-05
15 *37:12 *169:A 0.00155962
16 *37:12 *170:B 3.68769e-05
17 *37:16 *169:A 2.92496e-05
18 *37:40 *169:A 3.57349e-05
19 *38:10 *169:A 4.31189e-05
20 *40:10 *41:10 3.75882e-06
21 *40:10 *41:21 0.000120516
*RES
1 *183:X *41:10 6.12 
2 *41:10 *171:A2 4.2225 
3 *41:10 *41:21 10.56 
4 *41:21 *169:A 32.575 
5 *41:21 *170:B 8.85 
*END

*D_NET *42 0.00434157
*CONN
*I *170:C I *D sky130_fd_sc_hd__or4_1
*I *171:B1 I *D sky130_fd_sc_hd__o31ai_1
*I *184:X O *D sky130_fd_sc_hd__clkbuf_1
*CAP
1 *170:C 0.000407826
2 *171:B1 3.14942e-05
3 *184:X 0.000474222
4 *42:10 0.000913543
5 *42:10 *174:A 0.00023701
6 *166:A *171:B1 0.00016031
7 *170:A *170:C 8.20295e-05
8 *170:D *170:C 0.000817789
9 *171:A3 *170:C 0.000327981
10 *172:B *171:B1 9.28507e-05
11 *40:34 *170:C 0.000796519
*RES
1 *184:X *42:10 10.23 
2 *42:10 *171:B1 5.085 
3 *42:10 *170:C 17.985 
*END

*D_NET *43 0.00563958
*CONN
*I *174:A I *D sky130_fd_sc_hd__xor2_1
*I *185:X O *D sky130_fd_sc_hd__buf_1
*CAP
1 *174:A 0.00214875
2 *185:X 0.00214875
3 *174:A *193:A 0
4 *160:A *174:A 0
5 *162:A3 *174:A 0.000158072
6 *164:A_N *174:A 4.82863e-05
7 *173:A *174:A 0
8 *191:A *174:A 0.000197826
9 *192:A *174:A 0.000700883
10 *42:10 *174:A 0.00023701
*RES
1 *185:X *174:A 43.575 
*END

*D_NET *44 0.00293586
*CONN
*I *193:A I *D sky130_fd_sc_hd__buf_2
*I *177:X O *D sky130_fd_sc_hd__clkbuf_1
*CAP
1 *193:A 0.000563538
2 *177:X 0.000563538
3 *160:A *193:A 1.01661e-05
4 *162:B1 *193:A 0
5 *167:B *193:A 0
6 *173:A *193:A 0.000643445
7 *174:A *193:A 0
8 *186:A *193:A 0.000309019
9 *189:A *193:A 0.000190462
10 *191:A *193:A 0.000141022
11 *25:14 *193:A 8.41307e-05
12 *29:16 *193:A 0
13 *29:22 *193:A 0.000430545
*RES
1 *177:X *193:A 22.92 
*END
