*SPEF "ieee 1481-1999"
*DESIGN "lab1"
*DATE "20:15:23 Monday May 26, 2025"
*VENDOR "The OpenROAD Project"
*PROGRAM "OpenROAD"
*VERSION "b16bda7e82721d10566ff7e2b68f1ff0be9f9e38"
*DESIGN_FLOW "NAME_SCOPE LOCAL" "PIN_CAP NONE"
*DIVIDER /
*DELIMITER :
*BUS_DELIMITER []
*T_UNIT 1 NS
*C_UNIT 1 PF
*R_UNIT 1 OHM
*L_UNIT 1 HENRY

*NAME_MAP
*3 in[0]
*4 in[1]
*5 in[2]
*6 in[3]
*7 in[4]
*8 in[5]
*9 in[6]
*10 in[7]
*11 out[0]
*12 out[1]
*13 out[2]
*14 out[3]
*15 out[4]
*16 out[5]
*17 out[6]
*18 out[7]
*19 _00_
*20 _01_
*21 _02_
*22 _03_
*23 _04_
*24 _05_
*25 _06_
*26 _07_
*27 _08_
*28 _09_
*29 net1
*30 net10
*31 net11
*32 net12
*33 net13
*34 net14
*35 net15
*36 net16
*37 net2
*38 net3
*39 net4
*40 net5
*41 net6
*42 net7
*43 net8
*44 net9
*45 FILLER_0_0_21
*46 FILLER_0_0_27
*47 FILLER_0_0_29
*48 FILLER_0_0_41
*49 FILLER_0_0_47
*50 FILLER_0_0_55
*51 FILLER_0_0_57
*52 FILLER_0_0_69
*53 FILLER_0_0_9
*54 FILLER_0_1_18
*55 FILLER_0_1_30
*56 FILLER_0_1_42
*57 FILLER_0_1_54
*58 FILLER_0_1_57
*59 FILLER_0_1_6
*60 FILLER_0_1_69
*61 FILLER_0_2_11
*62 FILLER_0_2_23
*63 FILLER_0_2_27
*64 FILLER_0_2_29
*65 FILLER_0_2_3
*66 FILLER_0_2_33
*67 FILLER_0_2_37
*68 FILLER_0_2_49
*69 FILLER_0_2_61
*70 FILLER_0_2_73
*71 FILLER_0_3_15
*72 FILLER_0_3_27
*73 FILLER_0_3_3
*74 FILLER_0_3_39
*75 FILLER_0_3_51
*76 FILLER_0_3_55
*77 FILLER_0_3_60
*78 FILLER_0_3_72
*79 FILLER_0_3_80
*80 FILLER_0_4_18
*81 FILLER_0_4_27
*82 FILLER_0_4_29
*83 FILLER_0_4_41
*84 FILLER_0_4_53
*85 FILLER_0_4_6
*86 FILLER_0_4_65
*87 FILLER_0_5_15
*88 FILLER_0_5_27
*89 FILLER_0_5_3
*90 FILLER_0_5_39
*91 FILLER_0_5_43
*92 FILLER_0_5_51
*93 FILLER_0_5_55
*94 FILLER_0_5_57
*95 FILLER_0_5_63
*96 FILLER_0_5_78
*97 FILLER_0_6_18
*98 FILLER_0_6_26
*99 FILLER_0_6_29
*100 FILLER_0_6_41
*101 FILLER_0_6_53
*102 FILLER_0_6_6
*103 FILLER_0_6_66
*104 FILLER_0_6_73
*105 FILLER_0_7_15
*106 FILLER_0_7_27
*107 FILLER_0_7_3
*108 FILLER_0_7_39
*109 FILLER_0_7_51
*110 FILLER_0_7_55
*111 FILLER_0_7_62
*112 FILLER_0_7_74
*113 FILLER_0_8_21
*114 FILLER_0_8_27
*115 FILLER_0_8_32
*116 FILLER_0_8_44
*117 FILLER_0_8_55
*118 FILLER_0_8_63
*119 FILLER_0_8_79
*120 FILLER_0_8_9
*121 FILLER_0_9_22
*122 FILLER_0_9_29
*123 FILLER_0_9_41
*124 FILLER_0_9_53
*125 FILLER_0_9_57
*126 FILLER_0_9_65
*127 FILLER_0_9_80
*128 PHY_EDGE_ROW_0_Left_10
*129 PHY_EDGE_ROW_0_Right_0
*130 PHY_EDGE_ROW_1_Left_11
*131 PHY_EDGE_ROW_1_Right_1
*132 PHY_EDGE_ROW_2_Left_12
*133 PHY_EDGE_ROW_2_Right_2
*134 PHY_EDGE_ROW_3_Left_13
*135 PHY_EDGE_ROW_3_Right_3
*136 PHY_EDGE_ROW_4_Left_14
*137 PHY_EDGE_ROW_4_Right_4
*138 PHY_EDGE_ROW_5_Left_15
*139 PHY_EDGE_ROW_5_Right_5
*140 PHY_EDGE_ROW_6_Left_16
*141 PHY_EDGE_ROW_6_Right_6
*142 PHY_EDGE_ROW_7_Left_17
*143 PHY_EDGE_ROW_7_Right_7
*144 PHY_EDGE_ROW_8_Left_18
*145 PHY_EDGE_ROW_8_Right_8
*146 PHY_EDGE_ROW_9_Left_19
*147 PHY_EDGE_ROW_9_Right_9
*148 TAP_TAPCELL_ROW_0_20
*149 TAP_TAPCELL_ROW_0_21
*150 TAP_TAPCELL_ROW_1_22
*151 TAP_TAPCELL_ROW_2_23
*152 TAP_TAPCELL_ROW_3_24
*153 TAP_TAPCELL_ROW_4_25
*154 TAP_TAPCELL_ROW_5_26
*155 TAP_TAPCELL_ROW_6_27
*156 TAP_TAPCELL_ROW_7_28
*157 TAP_TAPCELL_ROW_8_29
*158 TAP_TAPCELL_ROW_9_30
*159 TAP_TAPCELL_ROW_9_31
*160 _10_
*161 _11_
*162 _12_
*163 _13_
*164 _14_
*165 _15_
*166 _16_
*167 _17_
*168 _18_
*169 _19_
*170 _20_
*171 _21_
*172 _22_
*173 _23_
*174 _24_
*175 _25_
*176 _26_
*177 _27_
*178 input1
*179 input2
*180 input3
*181 input4
*182 input5
*183 input6
*184 input7
*185 input8
*186 output10
*187 output11
*188 output12
*189 output13
*190 output14
*191 output15
*192 output16
*193 output9

*PORTS
in[0] I
in[1] I
in[2] I
in[3] I
in[4] I
in[5] I
in[6] I
in[7] I
out[0] O
out[1] O
out[2] O
out[3] O
out[4] O
out[5] O
out[6] O
out[7] O

*D_NET *3 0.00127937
*CONN
*P in[0] I
*I *178:A I *D sky130_fd_sc_hd__dlymetal6s2s_1
*CAP
1 in[0] 0.000576999
2 *178:A 0
3 *3:13 0.000576999
4 *3:13 *4:11 0.000125378
*RES
1 in[0] *3:13 31.6574 
2 *3:13 *178:A 23 
*END

*D_NET *4 0.00108883
*CONN
*P in[1] I
*I *179:A I *D sky130_fd_sc_hd__buf_1
*CAP
1 in[1] 0.000481725
2 *179:A 0
3 *4:11 0.000481725
4 *4:11 *170:B 0
5 *4:11 *5:19 0
6 *4:11 *21:42 0
7 *3:13 *4:11 0.000125378
*RES
1 in[1] *4:11 28.6568 
2 *4:11 *179:A 23 
*END

*D_NET *5 0.000855566
*CONN
*P in[2] I
*I *180:A I *D sky130_fd_sc_hd__buf_1
*CAP
1 in[2] 0.000427783
2 *180:A 0
3 *5:19 0.000427783
4 *5:19 *181:A 0
5 *4:11 *5:19 0
*RES
1 in[2] *5:19 28.7327 
2 *5:19 *180:A 23 
*END

*D_NET *6 0.000538176
*CONN
*P in[3] I
*I *181:A I *D sky130_fd_sc_hd__buf_1
*CAP
1 in[3] 0.000269088
2 *181:A 0.000269088
3 *181:A *182:A 0
4 *181:A *41:21 0
5 *5:19 *181:A 0
*RES
1 in[3] *181:A 47.7832 
*END

*D_NET *7 0.000610398
*CONN
*P in[4] I
*I *182:A I *D sky130_fd_sc_hd__buf_1
*CAP
1 in[4] 0.000305199
2 *182:A 0.000305199
3 *182:A *8:17 0
4 *181:A *182:A 0
*RES
1 in[4] *182:A 49.8062 
*END

*D_NET *8 0.000675009
*CONN
*P in[5] I
*I *183:A I *D sky130_fd_sc_hd__buf_1
*CAP
1 in[5] 0.000337505
2 *183:A 0
3 *8:17 0.000337505
4 *8:17 *184:A 0
5 *182:A *8:17 0
*RES
1 in[5] *8:17 27.5105 
2 *8:17 *183:A 23 
*END

*D_NET *9 0.000603153
*CONN
*P in[6] I
*I *184:A I *D sky130_fd_sc_hd__clkbuf_1
*CAP
1 in[6] 0.000301577
2 *184:A 0.000301577
3 *184:A *10:11 0
4 *8:17 *184:A 0
*RES
1 in[6] *184:A 49.8062 
*END

*D_NET *10 0.0012025
*CONN
*P in[7] I
*I *185:A I *D sky130_fd_sc_hd__buf_1
*CAP
1 in[7] 0.000601252
2 *185:A 0
3 *10:11 0.000601252
4 *184:A *10:11 0
*RES
1 in[7] *10:11 30.6751 
2 *10:11 *185:A 23 
*END

*D_NET *11 0.00172526
*CONN
*P out[0] O
*I *193:X O *D sky130_fd_sc_hd__buf_2
*CAP
1 out[0] 0.000541021
2 *193:X 0.000319469
3 *11:8 0.00086049
4 out[0] out[1] 0
5 *11:8 out[1] 0
6 *11:8 *33:18 4.2812e-06
*RES
1 *193:X *11:8 44.6596 
2 *11:8 out[0] 9.7024 
*END

*D_NET *12 0.00115986
*CONN
*P out[1] O
*I *186:X O *D sky130_fd_sc_hd__buf_2
*CAP
1 out[1] 0.000528734
2 *186:X 0.000528734
3 out[1] out[2] 0
4 out[1] *172:A 0.000102389
5 out[0] out[1] 0
6 *11:8 out[1] 0
*RES
1 *186:X out[1] 49.3104 
*END

*D_NET *13 0.000669549
*CONN
*P out[2] O
*I *187:X O *D sky130_fd_sc_hd__buf_2
*CAP
1 out[2] 0.000297464
2 *187:X 0.000297464
3 out[2] out[3] 0
4 out[2] *34:12 7.46212e-05
5 out[1] out[2] 0
*RES
1 *187:X out[2] 47.8691 
*END

*D_NET *14 0.000902123
*CONN
*P out[3] O
*I *188:X O *D sky130_fd_sc_hd__buf_2
*CAP
1 out[3] 0.000425348
2 *188:X 0.000425348
3 out[3] out[4] 0
4 out[3] *188:A 6.17437e-06
5 out[3] *33:26 2.47015e-05
6 out[3] *34:12 2.05503e-05
7 out[2] out[3] 0
*RES
1 *188:X out[3] 48.4344 
*END

*D_NET *15 0.000547374
*CONN
*P out[4] O
*I *189:X O *D sky130_fd_sc_hd__buf_2
*CAP
1 out[4] 0.000261336
2 *189:X 0.000261336
3 out[4] out[5] 0
4 out[4] *34:12 2.47015e-05
5 out[3] out[4] 0
*RES
1 *189:X out[4] 47.1648 
*END

*D_NET *16 0.000540795
*CONN
*P out[5] O
*I *190:X O *D sky130_fd_sc_hd__buf_2
*CAP
1 out[5] 0.000270398
2 *190:X 0.000270398
3 out[5] out[6] 0
4 out[4] out[5] 0
*RES
1 *190:X out[5] 47.1648 
*END

*D_NET *17 0.000507993
*CONN
*P out[6] O
*I *191:X O *D sky130_fd_sc_hd__buf_2
*CAP
1 out[6] 0.000253996
2 *191:X 0.000253996
3 out[6] out[7] 0
4 out[5] out[6] 0
*RES
1 *191:X out[6] 47.1648 
*END

*D_NET *18 0.00121999
*CONN
*P out[7] O
*I *192:X O *D sky130_fd_sc_hd__buf_2
*CAP
1 out[7] 0.000321295
2 *192:X 0.000288698
3 *18:8 0.000609993
4 out[6] out[7] 0
*RES
1 *192:X *18:8 43.9554 
2 *18:8 out[7] 9.1872 
*END

*D_NET *19 0.00557437
*CONN
*I *176:A I *D sky130_fd_sc_hd__nor2_1
*I *161:B I *D sky130_fd_sc_hd__xnor2_1
*I *160:Y O *D sky130_fd_sc_hd__nor2_1
*CAP
1 *176:A 0
2 *161:B 2.86386e-06
3 *160:Y 0.000609465
4 *19:33 0.000595986
5 *19:12 0.00120831
6 *161:B *37:61 2.5343e-05
7 *19:12 *160:B 0.000292206
8 *19:12 *37:61 8.6725e-05
9 *19:33 *173:A 4.38375e-05
10 *19:33 *23:24 0.000205948
11 *19:33 *30:10 7.73389e-05
12 *19:33 *37:61 0.000180119
13 *19:33 *38:6 0.000832341
14 *19:33 *40:52 0.000848344
15 *19:33 *41:35 0.000565533
*RES
1 *160:Y *19:12 47.3939 
2 *19:12 *161:B 38.3211 
3 *19:12 *19:33 37.5061 
4 *19:33 *176:A 23 
*END

*D_NET *20 0.00323233
*CONN
*I *164:A_N I *D sky130_fd_sc_hd__and2b_1
*I *162:X O *D sky130_fd_sc_hd__o31a_1
*CAP
1 *164:A_N 0
2 *162:X 0.000416893
3 *20:14 0.000664492
4 *20:10 0.00108139
5 *20:10 *38:18 0.000753367
6 *20:10 *43:8 5.50049e-05
7 *20:14 *21:23 0.00020285
8 *20:14 *21:27 5.83407e-05
*RES
1 *162:X *20:10 48.6264 
2 *20:10 *20:14 27.5321 
3 *20:14 *164:A_N 23 
*END

*D_NET *21 0.00880649
*CONN
*I *167:B I *D sky130_fd_sc_hd__and2_1
*I *164:B I *D sky130_fd_sc_hd__and2b_1
*I *170:D I *D sky130_fd_sc_hd__or4_1
*I *171:A3 I *D sky130_fd_sc_hd__o31ai_1
*I *166:B I *D sky130_fd_sc_hd__nor2_1
*I *163:X O *D sky130_fd_sc_hd__or4_2
*CAP
1 *167:B 0
2 *164:B 0
3 *170:D 0
4 *171:A3 0.000382914
5 *166:B 0.000269929
6 *163:X 0
7 *21:60 0.000467701
8 *21:42 0.000560476
9 *21:27 0.00126492
10 *21:23 0.000504038
11 *21:10 0.000859226
12 *21:4 0.000874492
13 *166:B *23:10 0.000407252
14 *171:A3 *166:A 6.58415e-06
15 *171:A3 *171:A2 3.7122e-06
16 *171:A3 *26:8 0.000191255
17 *171:A3 *42:23 0.000402227
18 *21:10 *163:A 2.02872e-05
19 *21:10 *163:B 9.58714e-05
20 *21:10 *163:C 9.84794e-05
21 *21:10 *23:10 0.000131744
22 *21:10 *39:25 3.53115e-05
23 *21:23 *22:10 0.000317553
24 *21:27 *40:34 1.85916e-05
25 *21:42 *170:A 8.16757e-06
26 *21:42 *42:23 0.00100312
27 *21:60 *163:A 6.17437e-06
28 *21:60 *163:B 8.43466e-05
29 *21:60 *29:16 0.000182585
30 *21:60 *29:22 0
31 *21:60 *29:24 5.50106e-05
32 *21:60 *37:16 0.000135693
33 *21:60 *37:22 1.97329e-05
34 *21:60 *39:25 0.000137899
35 *21:60 *44:12 0
36 *4:11 *21:42 0
37 *20:14 *21:23 0.00020285
38 *20:14 *21:27 5.83407e-05
*RES
1 *163:X *21:4 23 
2 *21:4 *21:10 23.2443 
3 *21:10 *166:B 44.4836 
4 *21:10 *21:23 20.8621 
5 *21:23 *21:27 20.3857 
6 *21:27 *171:A3 45.9543 
7 *21:27 *21:42 28.8786 
8 *21:42 *170:D 23 
9 *21:23 *164:B 23 
10 *21:4 *21:60 40.5229 
11 *21:60 *167:B 23 
*END

*D_NET *22 0.00421089
*CONN
*I *165:A I *D sky130_fd_sc_hd__clkbuf_1
*I *164:X O *D sky130_fd_sc_hd__and2b_1
*CAP
1 *165:A 0
2 *164:X 0.000400162
3 *22:18 0.000895138
4 *22:10 0.0012953
5 *22:10 *23:10 0.000160672
6 *22:18 *161:A 0.000561969
7 *22:18 *31:10 9.46403e-05
8 *22:18 *39:6 0.000485452
9 *21:23 *22:10 0.000317553
*RES
1 *164:X *22:10 45.8507 
2 *22:10 *22:18 33.415 
3 *22:18 *165:A 23 
*END

*D_NET *23 0.00733264
*CONN
*I *168:A I *D sky130_fd_sc_hd__nor2_1
*I *169:B I *D sky130_fd_sc_hd__xnor2_1
*I *166:Y O *D sky130_fd_sc_hd__nor2_1
*CAP
1 *168:A 0.00023653
2 *169:B 0
3 *166:Y 4.58657e-05
4 *23:24 0.000858623
5 *23:10 0.00190203
6 *23:8 0.000852745
7 *168:A *24:12 0.000620173
8 *168:A *25:6 0.000707745
9 *168:A *29:8 1.65191e-05
10 *168:A *30:10 4.85126e-05
11 *168:A *30:20 5.94125e-05
12 *168:A *33:10 2.4754e-05
13 *23:8 *26:8 5.5792e-05
14 *23:10 *28:12 0
15 *23:10 *30:10 1.58805e-05
16 *23:10 *39:12 0
17 *23:24 *36:8 5.40337e-05
18 *23:24 *40:52 0.000533567
19 *23:24 *41:35 0.000394834
20 *166:B *23:10 0.000407252
21 *19:33 *23:24 0.000205948
22 *21:10 *23:10 0.000131744
23 *22:10 *23:10 0.000160672
*RES
1 *166:Y *23:8 38.6214 
2 *23:8 *23:10 16.6957 
3 *23:10 *23:24 35.735 
4 *23:24 *169:B 23 
5 *23:10 *168:A 48.5229 
*END

*D_NET *24 0.00336475
*CONN
*I *168:B I *D sky130_fd_sc_hd__nor2_1
*I *167:X O *D sky130_fd_sc_hd__and2_1
*CAP
1 *168:B 0
2 *167:X 0.000137105
3 *24:12 0.000174846
4 *24:8 0.00031195
5 *24:8 *29:16 0.000215791
6 *24:12 *186:A 0.000618478
7 *24:12 *25:6 1.41129e-05
8 *24:12 *33:10 0.00127229
9 *168:A *24:12 0.000620173
*RES
1 *167:X *24:8 40.9621 
2 *24:8 *24:12 28.9614 
3 *24:12 *168:B 23 
*END

*D_NET *25 0.00591543
*CONN
*I *172:A I *D sky130_fd_sc_hd__and2_1
*I *174:B I *D sky130_fd_sc_hd__xor2_1
*I *170:X O *D sky130_fd_sc_hd__or4_1
*CAP
1 *172:A 0.000227502
2 *174:B 0
3 *170:X 0.000861939
4 *25:20 0.000194805
5 *25:14 0.000562406
6 *25:6 0.00100204
7 *172:A *186:A 7.26134e-05
8 *172:A *26:14 9.84851e-05
9 *172:A *27:12 5.75005e-05
10 *25:6 *186:A 0.00126566
11 *25:6 *27:12 0.000231068
12 *25:6 *29:8 1.08287e-05
13 *25:6 *30:20 0.000137651
14 *25:14 *186:A 2.02872e-05
15 *25:14 *33:10 9.77405e-05
16 *25:14 *33:18 3.54728e-05
17 *25:14 *44:12 9.77405e-05
18 *25:20 *173:A 0
19 *25:20 *26:14 0
20 *25:20 *33:18 0.000106001
21 *25:20 *36:14 1.14452e-05
22 out[1] *172:A 0.000102389
23 *168:A *25:6 0.000707745
24 *24:12 *25:6 1.41129e-05
*RES
1 *170:X *25:6 45.5371 
2 *25:6 *25:14 32.7757 
3 *25:14 *25:20 33.3143 
4 *25:20 *174:B 23 
5 *25:14 *172:A 28.4064 
*END

*D_NET *26 0.0072446
*CONN
*I *172:B I *D sky130_fd_sc_hd__and2_1
*I *171:Y O *D sky130_fd_sc_hd__o31ai_1
*CAP
1 *172:B 0
2 *171:Y 0
3 *26:14 0.000928155
4 *26:8 0.00266816
5 *26:4 0.00174001
6 *26:8 *166:A 0.0003364
7 *26:8 *171:B1 0.000103405
8 *26:14 *27:12 6.17437e-06
9 *26:14 *33:18 1.21972e-05
10 *26:14 *33:26 0.00100311
11 *26:14 *34:12 0.000101456
12 *26:14 *36:14 0
13 *171:A3 *26:8 0.000191255
14 *172:A *26:14 9.84851e-05
15 *23:8 *26:8 5.5792e-05
16 *25:20 *26:14 0
*RES
1 *171:Y *26:4 23 
2 *26:4 *26:8 46.5893 
3 *26:8 *26:14 35.6107 
4 *26:14 *172:B 23 
*END

*D_NET *27 0.0034785
*CONN
*I *173:A I *D sky130_fd_sc_hd__clkbuf_1
*I *172:X O *D sky130_fd_sc_hd__and2_1
*CAP
1 *173:A 0.00035091
2 *172:X 0.000317808
3 *27:12 0.000668718
4 *173:A *36:14 0
5 *173:A *37:61 0.000428484
6 *173:A *43:12 0
7 *173:A *44:12 0.000770164
8 *27:12 *186:A 0.000244026
9 *27:12 *33:18 0.000359813
10 *172:A *27:12 5.75005e-05
11 *19:33 *173:A 4.38375e-05
12 *25:6 *27:12 0.000231068
13 *25:20 *173:A 0
14 *26:14 *27:12 6.17437e-06
*RES
1 *172:X *27:12 45.9336 
2 *27:12 *173:A 48.3571 
*END

*D_NET *28 0.00297399
*CONN
*I *176:B I *D sky130_fd_sc_hd__nor2_1
*I *175:X O *D sky130_fd_sc_hd__and2_1
*CAP
1 *176:B 0
2 *175:X 0.000776905
3 *28:12 0.000139906
4 *28:6 0.00091681
5 *28:6 *37:12 0.000788861
6 *28:6 *37:40 0.000351508
7 *23:10 *28:12 0
*RES
1 *175:X *28:6 35.5321 
2 *28:6 *28:12 31.9057 
3 *28:12 *176:B 23 
*END

*D_NET *29 0.0120084
*CONN
*I *175:B I *D sky130_fd_sc_hd__and2_1
*I *160:B I *D sky130_fd_sc_hd__nor2_1
*I *177:A I *D sky130_fd_sc_hd__clkbuf_1
*I *162:A2 I *D sky130_fd_sc_hd__o31a_1
*I *163:B I *D sky130_fd_sc_hd__or4_2
*I *178:X O *D sky130_fd_sc_hd__dlymetal6s2s_1
*CAP
1 *175:B 3.08576e-05
2 *160:B 0.000363303
3 *177:A 0.000181373
4 *162:A2 0.000266468
5 *163:B 0.000145942
6 *178:X 0.00141261
7 *29:35 0.00058016
8 *29:24 0.000538309
9 *29:22 0.000888073
10 *29:16 0.000771711
11 *29:8 0.00188874
12 *160:B *37:61 0.00057842
13 *162:A2 *37:22 0.000326769
14 *162:A2 *39:25 0.000326769
15 *175:B *37:40 5.3304e-05
16 *29:8 *170:B 1.80067e-05
17 *29:8 *33:10 0.00135924
18 *29:16 *37:40 0.000311549
19 *29:16 *41:35 0.000133316
20 *29:16 *44:12 0
21 *29:22 *39:25 0
22 *29:22 *44:12 0.000516168
23 *29:24 *39:25 9.88574e-06
24 *29:35 *37:22 0.000175335
25 *29:35 *39:25 0.000178946
26 *168:A *29:8 1.65191e-05
27 *19:12 *160:B 0.000292206
28 *21:10 *163:B 9.58714e-05
29 *21:60 *163:B 8.43466e-05
30 *21:60 *29:16 0.000182585
31 *21:60 *29:22 0
32 *21:60 *29:24 5.50106e-05
33 *24:8 *29:16 0.000215791
34 *25:6 *29:8 1.08287e-05
*RES
1 *178:X *29:8 45.4336 
2 *29:8 *29:16 39.9636 
3 *29:16 *29:22 36.8357 
4 *29:22 *29:24 3.48 
5 *29:24 *163:B 25.0507 
6 *29:24 *29:35 19.7229 
7 *29:35 *162:A2 46.9486 
8 *29:35 *177:A 41.0036 
9 *29:22 *160:B 32.5907 
10 *29:16 *175:B 23.6214 
*END

*D_NET *30 0.00449908
*CONN
*I *186:A I *D sky130_fd_sc_hd__buf_2
*I *176:Y O *D sky130_fd_sc_hd__nor2_1
*CAP
1 *186:A 0.000317501
2 *176:Y 0.000139102
3 *30:20 0.000476263
4 *30:10 0.000297864
5 *186:A *33:10 0.000207688
6 *186:A *44:12 0.000358858
7 *30:10 *40:52 0.000141954
8 *168:A *30:10 4.85126e-05
9 *168:A *30:20 5.94125e-05
10 *172:A *186:A 7.26134e-05
11 *19:33 *30:10 7.73389e-05
12 *23:10 *30:10 1.58805e-05
13 *24:12 *186:A 0.000618478
14 *25:6 *186:A 0.00126566
15 *25:6 *30:20 0.000137651
16 *25:14 *186:A 2.02872e-05
17 *27:12 *186:A 0.000244026
*RES
1 *176:Y *30:10 41.48 
2 *30:10 *30:20 47.4236 
3 *30:20 *186:A 40.3171 
*END

*D_NET *31 0.00158211
*CONN
*I *187:A I *D sky130_fd_sc_hd__buf_2
*I *161:Y O *D sky130_fd_sc_hd__xnor2_1
*CAP
1 *187:A 0
2 *161:Y 0.000535004
3 *31:10 0.000535004
4 *31:10 *188:A 7.81131e-05
5 *31:10 *33:26 0.000169674
6 *31:10 *34:12 0.000169674
7 *22:18 *31:10 9.46403e-05
*RES
1 *161:Y *31:10 46.5964 
2 *31:10 *187:A 38 
*END

*D_NET *32 0.000462793
*CONN
*I *188:A I *D sky130_fd_sc_hd__buf_2
*I *165:X O *D sky130_fd_sc_hd__clkbuf_1
*CAP
1 *188:A 0.000189253
2 *165:X 0.000189253
3 out[3] *188:A 6.17437e-06
4 *31:10 *188:A 7.81131e-05
*RES
1 *165:X *188:A 49.3764 
*END

*D_NET *33 0.00807621
*CONN
*I *189:A I *D sky130_fd_sc_hd__buf_2
*I *168:Y O *D sky130_fd_sc_hd__nor2_1
*CAP
1 *189:A 0
2 *168:Y 0.000590642
3 *33:26 0.000430641
4 *33:18 0.000847044
5 *33:10 0.00100705
6 *33:10 *44:12 0.000217482
7 *33:18 *44:12 0
8 *33:26 *34:12 0.000306394
9 out[3] *33:26 2.47015e-05
10 *168:A *33:10 2.4754e-05
11 *186:A *33:10 0.000207688
12 *11:8 *33:18 4.2812e-06
13 *24:12 *33:10 0.00127229
14 *25:14 *33:10 9.77405e-05
15 *25:14 *33:18 3.54728e-05
16 *25:20 *33:18 0.000106001
17 *26:14 *33:18 1.21972e-05
18 *26:14 *33:26 0.00100311
19 *27:12 *33:18 0.000359813
20 *29:8 *33:10 0.00135924
21 *31:10 *33:26 0.000169674
*RES
1 *168:Y *33:10 46.1793 
2 *33:10 *33:18 36.3386 
3 *33:18 *33:26 44.1479 
4 *33:26 *189:A 23 
*END

*D_NET *34 0.00214346
*CONN
*I *190:A I *D sky130_fd_sc_hd__buf_2
*I *169:Y O *D sky130_fd_sc_hd__xnor2_1
*CAP
1 *190:A 0
2 *169:Y 0
3 *34:12 0.000723033
4 *34:6 0.000723033
5 out[2] *34:12 7.46212e-05
6 out[3] *34:12 2.05503e-05
7 out[4] *34:12 2.47015e-05
8 *26:14 *34:12 0.000101456
9 *31:10 *34:12 0.000169674
10 *33:26 *34:12 0.000306394
*RES
1 *169:Y *34:6 38 
2 *34:6 *34:12 31.965 
3 *34:12 *190:A 23 
*END

*D_NET *35 0.00255284
*CONN
*I *191:A I *D sky130_fd_sc_hd__buf_2
*I *173:X O *D sky130_fd_sc_hd__clkbuf_1
*CAP
1 *191:A 0
2 *173:X 0
3 *35:14 0.000996114
4 *35:6 0.000996114
5 *35:14 *36:14 0.000188934
6 *35:14 *39:25 0
7 *35:14 *43:8 0.000233367
8 *35:14 *44:12 0.000138312
*RES
1 *173:X *35:6 38 
2 *35:6 *35:14 35.9629 
3 *35:14 *191:A 23 
*END

*D_NET *36 0.00344763
*CONN
*I *192:A I *D sky130_fd_sc_hd__buf_2
*I *174:X O *D sky130_fd_sc_hd__xor2_1
*CAP
1 *192:A 0
2 *174:X 5.11028e-05
3 *36:14 0.0011778
4 *36:8 0.0012289
5 *36:14 *43:12 0.000735408
6 *173:A *36:14 0
7 *23:24 *36:8 5.40337e-05
8 *25:20 *36:14 1.14452e-05
9 *26:14 *36:14 0
10 *35:14 *36:14 0.000188934
*RES
1 *174:X *36:8 39.0979 
2 *36:8 *36:14 40.085 
3 *36:14 *192:A 23 
*END

*D_NET *37 0.0117181
*CONN
*I *160:A I *D sky130_fd_sc_hd__nor2_1
*I *175:A I *D sky130_fd_sc_hd__and2_1
*I *163:A I *D sky130_fd_sc_hd__or4_2
*I *162:A1 I *D sky130_fd_sc_hd__o31a_1
*I *179:X O *D sky130_fd_sc_hd__buf_1
*CAP
1 *160:A 0
2 *175:A 0
3 *163:A 4.00149e-05
4 *162:A1 0
5 *179:X 7.97336e-05
6 *37:61 0.00064456
7 *37:40 0.00084811
8 *37:22 0.000425572
9 *37:16 0.000657934
10 *37:12 0.00110326
11 *37:8 0.000787097
12 *163:A *163:C 5.50049e-05
13 *163:A *39:25 9.58714e-05
14 *37:8 *170:B 3.5664e-05
15 *37:12 *41:25 0.00178692
16 *37:16 *38:10 0.000275473
17 *37:16 *38:12 0.000178782
18 *37:16 *41:35 3.47781e-05
19 *37:22 *38:12 3.47781e-05
20 *37:22 *38:18 0.00109516
21 *37:40 *41:25 4.08664e-05
22 *37:61 *43:12 0
23 *37:61 *44:12 1.02387e-05
24 *160:B *37:61 0.00057842
25 *161:B *37:61 2.5343e-05
26 *162:A2 *37:22 0.000326769
27 *173:A *37:61 0.000428484
28 *175:B *37:40 5.3304e-05
29 *19:12 *37:61 8.6725e-05
30 *19:33 *37:61 0.000180119
31 *21:10 *163:A 2.02872e-05
32 *21:60 *163:A 6.17437e-06
33 *21:60 *37:16 0.000135693
34 *21:60 *37:22 1.97329e-05
35 *28:6 *37:12 0.000788861
36 *28:6 *37:40 0.000351508
37 *29:16 *37:40 0.000311549
38 *29:35 *37:22 0.000175335
*RES
1 *179:X *37:8 39.5536 
2 *37:8 *37:12 36.1079 
3 *37:12 *37:16 21.1314 
4 *37:16 *37:22 30.2043 
5 *37:22 *162:A1 23 
6 *37:16 *163:A 39.0979 
7 *37:12 *37:40 5.88286 
8 *37:40 *175:A 23 
9 *37:40 *37:61 45.3079 
10 *37:61 *160:A 23 
*END

*D_NET *38 0.00919781
*CONN
*I *161:A I *D sky130_fd_sc_hd__xnor2_1
*I *163:C I *D sky130_fd_sc_hd__or4_2
*I *162:A3 I *D sky130_fd_sc_hd__o31a_1
*I *180:X O *D sky130_fd_sc_hd__buf_1
*CAP
1 *161:A 0.000280142
2 *163:C 2.14319e-05
3 *162:A3 0
4 *180:X 0.00128859
5 *38:18 0.000454339
6 *38:12 0.000623416
7 *38:10 0.000657411
8 *38:6 0.00151822
9 *163:C *39:25 2.4754e-05
10 *38:6 *40:52 0.000218934
11 *38:10 *41:35 4.49946e-05
12 *38:12 *39:12 0
13 *38:18 *43:8 0.000180224
14 *163:A *163:C 5.50049e-05
15 *19:33 *38:6 0.000832341
16 *20:10 *38:18 0.000753367
17 *21:10 *163:C 9.84794e-05
18 *22:18 *161:A 0.000561969
19 *37:16 *38:10 0.000275473
20 *37:16 *38:12 0.000178782
21 *37:22 *38:12 3.47781e-05
22 *37:22 *38:18 0.00109516
*RES
1 *180:X *38:6 42.2021 
2 *38:6 *38:10 20.075 
3 *38:10 *38:12 2.96214 
4 *38:12 *38:18 30.9293 
5 *38:18 *162:A3 23 
6 *38:12 *163:C 39.0979 
7 *38:10 *161:A 44.3386 
*END

*D_NET *39 0.00602608
*CONN
*I *162:B1 I *D sky130_fd_sc_hd__o31a_1
*I *163:D I *D sky130_fd_sc_hd__or4_2
*I *181:X O *D sky130_fd_sc_hd__buf_1
*CAP
1 *162:B1 0
2 *163:D 0
3 *181:X 0.00140725
4 *39:25 0.000859385
5 *39:12 0.000958346
6 *39:6 0.00150621
7 *39:25 *44:12 0
8 *162:A2 *39:25 0.000326769
9 *163:A *39:25 9.58714e-05
10 *163:C *39:25 2.4754e-05
11 *21:10 *39:25 3.53115e-05
12 *21:60 *39:25 0.000137899
13 *22:18 *39:6 0.000485452
14 *23:10 *39:12 0
15 *29:22 *39:25 0
16 *29:24 *39:25 9.88574e-06
17 *29:35 *39:25 0.000178946
18 *35:14 *39:25 0
19 *38:12 *39:12 0
*RES
1 *181:X *39:6 41.7257 
2 *39:6 *39:12 31.5536 
3 *39:12 *163:D 23 
4 *39:12 *39:25 49.3679 
5 *39:25 *162:B1 23 
*END

*D_NET *40 0.00871217
*CONN
*I *170:A I *D sky130_fd_sc_hd__or4_1
*I *167:A I *D sky130_fd_sc_hd__and2_1
*I *171:A1 I *D sky130_fd_sc_hd__o31ai_1
*I *166:A I *D sky130_fd_sc_hd__nor2_1
*I *182:X O *D sky130_fd_sc_hd__buf_1
*CAP
1 *170:A 0.000113398
2 *167:A 0
3 *171:A1 0
4 *166:A 0.000707891
5 *182:X 0
6 *40:52 0.000624804
7 *40:34 0.00165541
8 *40:10 0.000930245
9 *40:4 0.00113957
10 *166:A *171:A2 7.81347e-05
11 *166:A *171:B1 0.000188927
12 *170:A *42:23 8.89109e-05
13 *40:10 *41:10 3.50862e-06
14 *40:10 *41:21 0.000113908
15 *40:34 *42:23 0.000954926
16 *171:A3 *166:A 6.58415e-06
17 *19:33 *40:52 0.000848344
18 *21:27 *40:34 1.85916e-05
19 *21:42 *170:A 8.16757e-06
20 *23:24 *40:52 0.000533567
21 *26:8 *166:A 0.0003364
22 *30:10 *40:52 0.000141954
23 *38:6 *40:52 0.000218934
*RES
1 *182:X *40:4 23 
2 *40:4 *40:10 35.075 
3 *40:10 *166:A 37.9557 
4 *40:10 *171:A1 23 
5 *40:4 *40:34 33.1768 
6 *40:34 *40:52 35.8489 
7 *40:52 *167:A 23 
8 *40:34 *170:A 40.7861 
*END

*D_NET *41 0.00950433
*CONN
*I *170:B I *D sky130_fd_sc_hd__or4_1
*I *169:A I *D sky130_fd_sc_hd__xnor2_1
*I *171:A2 I *D sky130_fd_sc_hd__o31ai_1
*I *183:X O *D sky130_fd_sc_hd__buf_1
*CAP
1 *170:B 0.000466143
2 *169:A 0
3 *171:A2 3.3097e-05
4 *183:X 0.000248646
5 *41:35 0.000904472
6 *41:25 0.0016507
7 *41:21 0.00193886
8 *41:10 0.00100823
9 *166:A *171:A2 7.81347e-05
10 *171:A3 *171:A2 3.7122e-06
11 *181:A *41:21 0
12 *4:11 *170:B 0
13 *19:33 *41:35 0.000565533
14 *23:24 *41:35 0.000394834
15 *29:8 *170:B 1.80067e-05
16 *29:16 *41:35 0.000133316
17 *37:8 *170:B 3.5664e-05
18 *37:12 *41:25 0.00178692
19 *37:16 *41:35 3.47781e-05
20 *37:40 *41:25 4.08664e-05
21 *38:10 *41:35 4.49946e-05
22 *40:10 *41:10 3.50862e-06
23 *40:10 *41:21 0.000113908
*RES
1 *183:X *41:10 41.48 
2 *41:10 *171:A2 38.8596 
3 *41:10 *41:21 14.5829 
4 *41:21 *41:25 35.155 
5 *41:25 *41:35 44.3343 
6 *41:35 *169:A 23 
7 *41:21 *170:B 45.25 
*END

*D_NET *42 0.00536208
*CONN
*I *170:C I *D sky130_fd_sc_hd__or4_1
*I *171:B1 I *D sky130_fd_sc_hd__o31ai_1
*I *184:X O *D sky130_fd_sc_hd__clkbuf_1
*CAP
1 *170:C 0
2 *171:B1 4.14896e-05
3 *184:X 0.000571228
4 *42:23 0.000557817
5 *42:10 0.00117053
6 *42:10 *43:8 0.000279493
7 *166:A *171:B1 0.000188927
8 *170:A *42:23 8.89109e-05
9 *171:A3 *42:23 0.000402227
10 *21:42 *42:23 0.00100312
11 *26:8 *171:B1 0.000103405
12 *40:34 *42:23 0.000954926
*RES
1 *184:X *42:10 47.1557 
2 *42:10 *171:B1 40.0507 
3 *42:10 *42:23 34.865 
4 *42:23 *170:C 23 
*END

*D_NET *43 0.00665197
*CONN
*I *174:A I *D sky130_fd_sc_hd__xor2_1
*I *185:X O *D sky130_fd_sc_hd__buf_1
*CAP
1 *174:A 0
2 *185:X 0
3 *43:12 0.00103701
4 *43:8 0.00258424
5 *43:4 0.00154723
6 *43:12 *44:12 0
7 *173:A *43:12 0
8 *20:10 *43:8 5.50049e-05
9 *35:14 *43:8 0.000233367
10 *36:14 *43:12 0.000735408
11 *37:61 *43:12 0
12 *38:18 *43:8 0.000180224
13 *42:10 *43:8 0.000279493
*RES
1 *185:X *43:4 23 
2 *43:4 *43:8 43.2543 
3 *43:8 *43:12 36.9779 
4 *43:12 *174:A 23 
*END

*D_NET *44 0.00362744
*CONN
*I *193:A I *D sky130_fd_sc_hd__buf_2
*I *177:X O *D sky130_fd_sc_hd__clkbuf_1
*CAP
1 *193:A 0
2 *177:X 0
3 *44:12 0.000759237
4 *44:6 0.000759237
5 *173:A *44:12 0.000770164
6 *186:A *44:12 0.000358858
7 *21:60 *44:12 0
8 *25:14 *44:12 9.77405e-05
9 *29:16 *44:12 0
10 *29:22 *44:12 0.000516168
11 *33:10 *44:12 0.000217482
12 *33:18 *44:12 0
13 *35:14 *44:12 0.000138312
14 *37:61 *44:12 1.02387e-05
15 *39:25 *44:12 0
16 *43:12 *44:12 0
*RES
1 *177:X *44:6 38 
2 *44:6 *44:12 36.7086 
3 *44:12 *193:A 23 
*END
