*SPEF "ieee 1481-1999"
*DESIGN "lab1"
*DATE "20:15:27 Monday May 26, 2025"
*VENDOR "The OpenROAD Project"
*PROGRAM "OpenROAD"
*VERSION "b16bda7e82721d10566ff7e2b68f1ff0be9f9e38"
*DESIGN_FLOW "NAME_SCOPE LOCAL" "PIN_CAP NONE"
*DIVIDER /
*DELIMITER :
*BUS_DELIMITER []
*T_UNIT 1 NS
*C_UNIT 1 PF
*R_UNIT 1 OHM
*L_UNIT 1 HENRY

*NAME_MAP
*3 in[0]
*4 in[1]
*5 in[2]
*6 in[3]
*7 in[4]
*8 in[5]
*9 in[6]
*10 in[7]
*11 out[0]
*12 out[1]
*13 out[2]
*14 out[3]
*15 out[4]
*16 out[5]
*17 out[6]
*18 out[7]
*19 _00_
*20 _01_
*21 _02_
*22 _03_
*23 _04_
*24 _05_
*25 _06_
*26 _07_
*27 _08_
*28 _09_
*29 net1
*30 net10
*31 net11
*32 net12
*33 net13
*34 net14
*35 net15
*36 net16
*37 net2
*38 net3
*39 net4
*40 net5
*41 net6
*42 net7
*43 net8
*44 net9
*45 FILLER_0_0_21
*46 FILLER_0_0_27
*47 FILLER_0_0_29
*48 FILLER_0_0_41
*49 FILLER_0_0_47
*50 FILLER_0_0_55
*51 FILLER_0_0_57
*52 FILLER_0_0_69
*53 FILLER_0_0_9
*54 FILLER_0_1_18
*55 FILLER_0_1_30
*56 FILLER_0_1_42
*57 FILLER_0_1_54
*58 FILLER_0_1_57
*59 FILLER_0_1_6
*60 FILLER_0_1_69
*61 FILLER_0_2_11
*62 FILLER_0_2_23
*63 FILLER_0_2_27
*64 FILLER_0_2_29
*65 FILLER_0_2_3
*66 FILLER_0_2_33
*67 FILLER_0_2_37
*68 FILLER_0_2_49
*69 FILLER_0_2_61
*70 FILLER_0_2_73
*71 FILLER_0_3_15
*72 FILLER_0_3_27
*73 FILLER_0_3_3
*74 FILLER_0_3_39
*75 FILLER_0_3_51
*76 FILLER_0_3_55
*77 FILLER_0_3_60
*78 FILLER_0_3_72
*79 FILLER_0_3_80
*80 FILLER_0_4_18
*81 FILLER_0_4_27
*82 FILLER_0_4_29
*83 FILLER_0_4_41
*84 FILLER_0_4_53
*85 FILLER_0_4_6
*86 FILLER_0_4_65
*87 FILLER_0_5_15
*88 FILLER_0_5_27
*89 FILLER_0_5_3
*90 FILLER_0_5_39
*91 FILLER_0_5_43
*92 FILLER_0_5_51
*93 FILLER_0_5_55
*94 FILLER_0_5_57
*95 FILLER_0_5_63
*96 FILLER_0_5_78
*97 FILLER_0_6_18
*98 FILLER_0_6_26
*99 FILLER_0_6_29
*100 FILLER_0_6_41
*101 FILLER_0_6_53
*102 FILLER_0_6_6
*103 FILLER_0_6_66
*104 FILLER_0_6_73
*105 FILLER_0_7_15
*106 FILLER_0_7_27
*107 FILLER_0_7_3
*108 FILLER_0_7_39
*109 FILLER_0_7_51
*110 FILLER_0_7_55
*111 FILLER_0_7_62
*112 FILLER_0_7_74
*113 FILLER_0_8_21
*114 FILLER_0_8_27
*115 FILLER_0_8_32
*116 FILLER_0_8_44
*117 FILLER_0_8_55
*118 FILLER_0_8_63
*119 FILLER_0_8_79
*120 FILLER_0_8_9
*121 FILLER_0_9_22
*122 FILLER_0_9_29
*123 FILLER_0_9_41
*124 FILLER_0_9_53
*125 FILLER_0_9_57
*126 FILLER_0_9_65
*127 FILLER_0_9_80
*128 PHY_EDGE_ROW_0_Left_10
*129 PHY_EDGE_ROW_0_Right_0
*130 PHY_EDGE_ROW_1_Left_11
*131 PHY_EDGE_ROW_1_Right_1
*132 PHY_EDGE_ROW_2_Left_12
*133 PHY_EDGE_ROW_2_Right_2
*134 PHY_EDGE_ROW_3_Left_13
*135 PHY_EDGE_ROW_3_Right_3
*136 PHY_EDGE_ROW_4_Left_14
*137 PHY_EDGE_ROW_4_Right_4
*138 PHY_EDGE_ROW_5_Left_15
*139 PHY_EDGE_ROW_5_Right_5
*140 PHY_EDGE_ROW_6_Left_16
*141 PHY_EDGE_ROW_6_Right_6
*142 PHY_EDGE_ROW_7_Left_17
*143 PHY_EDGE_ROW_7_Right_7
*144 PHY_EDGE_ROW_8_Left_18
*145 PHY_EDGE_ROW_8_Right_8
*146 PHY_EDGE_ROW_9_Left_19
*147 PHY_EDGE_ROW_9_Right_9
*148 TAP_TAPCELL_ROW_0_20
*149 TAP_TAPCELL_ROW_0_21
*150 TAP_TAPCELL_ROW_1_22
*151 TAP_TAPCELL_ROW_2_23
*152 TAP_TAPCELL_ROW_3_24
*153 TAP_TAPCELL_ROW_4_25
*154 TAP_TAPCELL_ROW_5_26
*155 TAP_TAPCELL_ROW_6_27
*156 TAP_TAPCELL_ROW_7_28
*157 TAP_TAPCELL_ROW_8_29
*158 TAP_TAPCELL_ROW_9_30
*159 TAP_TAPCELL_ROW_9_31
*160 _10_
*161 _11_
*162 _12_
*163 _13_
*164 _14_
*165 _15_
*166 _16_
*167 _17_
*168 _18_
*169 _19_
*170 _20_
*171 _21_
*172 _22_
*173 _23_
*174 _24_
*175 _25_
*176 _26_
*177 _27_
*178 input1
*179 input2
*180 input3
*181 input4
*182 input5
*183 input6
*184 input7
*185 input8
*186 output10
*187 output11
*188 output12
*189 output13
*190 output14
*191 output15
*192 output16
*193 output9

*PORTS
in[0] I
in[1] I
in[2] I
in[3] I
in[4] I
in[5] I
in[6] I
in[7] I
out[0] O
out[1] O
out[2] O
out[3] O
out[4] O
out[5] O
out[6] O
out[7] O

*D_NET *3 0.00118075
*CONN
*P in[0] I
*I *178:A I *D sky130_fd_sc_hd__dlymetal6s2s_1
*CAP
1 in[0] 0.000533485
2 *178:A 0.000533485
3 *178:A *179:A 0.000113778
*RES
1 in[0] *178:A 24.6579 
*END

*D_NET *4 0.000988264
*CONN
*P in[1] I
*I *179:A I *D sky130_fd_sc_hd__buf_1
*CAP
1 in[1] 0.000437243
2 *179:A 0.000437243
3 *179:A *170:B 0
4 *179:A *170:D 0
5 *179:A *180:A 0
6 *178:A *179:A 0.000113778
*RES
1 in[1] *179:A 22.0693 
*END

*D_NET *5 0.000799944
*CONN
*P in[2] I
*I *180:A I *D sky130_fd_sc_hd__buf_1
*CAP
1 in[2] 0.000399972
2 *180:A 0.000399972
3 *180:A *181:A 0
4 *179:A *180:A 0
*RES
1 in[2] *180:A 22.141 
*END

*D_NET *6 0.000506833
*CONN
*P in[3] I
*I *181:A I *D sky130_fd_sc_hd__buf_1
*CAP
1 in[3] 0.000253417
2 *181:A 0.000253417
3 *181:A *182:A 0
4 *181:A *41:21 0
5 *180:A *181:A 0
*RES
1 in[3] *181:A 18.73 
*END

*D_NET *7 0.000569254
*CONN
*P in[4] I
*I *182:A I *D sky130_fd_sc_hd__buf_1
*CAP
1 in[4] 0.000284627
2 *182:A 0.000284627
3 *182:A *183:A 0
4 *181:A *182:A 0
*RES
1 in[4] *182:A 20.4803 
*END

*D_NET *8 0.000630824
*CONN
*P in[5] I
*I *183:A I *D sky130_fd_sc_hd__buf_1
*CAP
1 in[5] 0.000315412
2 *183:A 0.000315412
3 *183:A *184:A 0
4 *182:A *183:A 0
*RES
1 in[5] *183:A 21.0874 
*END

*D_NET *9 0.000563768
*CONN
*P in[6] I
*I *184:A I *D sky130_fd_sc_hd__clkbuf_1
*CAP
1 in[6] 0.000281884
2 *184:A 0.000281884
3 *184:A *185:A 0
4 *183:A *184:A 0
*RES
1 in[6] *184:A 20.4803 
*END

*D_NET *10 0.00113105
*CONN
*P in[7] I
*I *185:A I *D sky130_fd_sc_hd__buf_1
*CAP
1 in[7] 0.000565523
2 *185:A 0.000565523
3 *184:A *185:A 0
*RES
1 in[7] *185:A 23.8033 
*END

*D_NET *11 0.00159748
*CONN
*P out[0] O
*I *193:X O *D sky130_fd_sc_hd__buf_2
*CAP
1 out[0] 0.000796673
2 *193:X 0.000796673
3 out[0] out[1] 0
4 out[0] *33:20 4.13122e-06
*RES
1 *193:X out[0] 24.3799 
*END

*D_NET *12 0.00107752
*CONN
*P out[1] O
*I *186:X O *D sky130_fd_sc_hd__buf_2
*CAP
1 out[1] 0.000488768
2 *186:X 0.000488768
3 out[1] out[2] 0
4 out[1] *172:A 9.99853e-05
5 out[0] out[1] 0
*RES
1 *186:X out[1] 20.0368 
*END

*D_NET *13 0.000615868
*CONN
*P out[2] O
*I *187:X O *D sky130_fd_sc_hd__buf_2
*CAP
1 out[2] 0.000274117
2 *187:X 0.000274117
3 out[2] out[3] 0
4 out[2] *190:A 6.76337e-05
5 out[1] out[2] 0
*RES
1 *187:X out[2] 18.8021 
*END

*D_NET *14 0.000837808
*CONN
*P out[3] O
*I *188:X O *D sky130_fd_sc_hd__buf_2
*CAP
1 out[3] 0.000395229
2 *188:X 0.000395229
3 out[3] out[4] 0
4 out[3] *188:A 6.05161e-06
5 out[3] *189:A 2.22043e-05
6 out[3] *190:A 1.90936e-05
7 out[2] out[3] 0
*RES
1 *188:X out[3] 19.2855 
*END

*D_NET *15 0.000516002
*CONN
*P out[4] O
*I *189:X O *D sky130_fd_sc_hd__buf_2
*CAP
1 out[4] 0.000246899
2 *189:X 0.000246899
3 out[4] out[5] 0
4 out[4] *190:A 2.22043e-05
5 out[3] out[4] 0
*RES
1 *189:X out[4] 18.1949 
*END

*D_NET *16 0.000509665
*CONN
*P out[5] O
*I *190:X O *D sky130_fd_sc_hd__buf_2
*CAP
1 out[5] 0.000254833
2 *190:X 0.000254833
3 out[5] out[6] 0
4 out[4] out[5] 0
*RES
1 *190:X out[5] 18.1949 
*END

*D_NET *17 0.000479894
*CONN
*P out[6] O
*I *191:X O *D sky130_fd_sc_hd__buf_2
*CAP
1 out[6] 0.000239947
2 *191:X 0.000239947
3 out[6] out[7] 0
4 out[5] out[6] 0
*RES
1 *191:X out[6] 18.1949 
*END

*D_NET *18 0.00115195
*CONN
*P out[7] O
*I *192:X O *D sky130_fd_sc_hd__buf_2
*CAP
1 out[7] 0.000575975
2 *192:X 0.000575975
3 out[6] out[7] 0
*RES
1 *192:X out[7] 23.3403 
*END

*D_NET *19 0.00525975
*CONN
*I *176:A I *D sky130_fd_sc_hd__nor2_1
*I *161:B I *D sky130_fd_sc_hd__xnor2_1
*I *160:Y O *D sky130_fd_sc_hd__nor2_1
*CAP
1 *176:A 0.000509696
2 *161:B 2.72602e-06
3 *160:Y 0.000551741
4 *19:12 0.00106416
5 *161:B *160:A 2.26973e-05
6 *176:A *160:A 0.00016336
7 *176:A *167:A 0.000852156
8 *176:A *169:B 0.000202201
9 *176:A *173:A 4.43698e-05
10 *176:A *30:24 7.61932e-05
11 *176:A *38:10 0.00083797
12 *176:A *41:35 0.000566849
13 *19:12 *160:A 8.36945e-05
14 *19:12 *160:B 0.000281938
*RES
1 *160:Y *19:12 21.8982 
2 *19:12 *161:B 14.0768 
3 *19:12 *176:A 33.2018 
*END

*D_NET *20 0.00296811
*CONN
*I *164:A_N I *D sky130_fd_sc_hd__and2b_1
*I *162:X O *D sky130_fd_sc_hd__o31a_1
*CAP
1 *164:A_N 0.000990068
2 *162:X 0.000990068
3 *164:A_N *162:A3 0.000674689
4 *164:A_N *21:23 0.000200451
5 *164:A_N *21:27 5.76121e-05
6 *164:A_N *43:8 5.52238e-05
*RES
1 *162:X *164:A_N 47.5643 
*END

*D_NET *21 0.0079733
*CONN
*I *167:B I *D sky130_fd_sc_hd__and2_1
*I *164:B I *D sky130_fd_sc_hd__and2b_1
*I *170:D I *D sky130_fd_sc_hd__or4_1
*I *171:A3 I *D sky130_fd_sc_hd__o31ai_1
*I *166:B I *D sky130_fd_sc_hd__nor2_1
*I *163:X O *D sky130_fd_sc_hd__or4_2
*CAP
1 *167:B 0.000387114
2 *164:B 0
3 *170:D 0.000491045
4 *171:A3 0.000346648
5 *166:B 0.000237531
6 *163:X 0
7 *21:27 0.00113073
8 *21:23 0.00045627
9 *21:10 0.000771474
10 *21:4 0.000757826
11 *166:B *23:10 0.000366252
12 *167:B *162:A1 1.97381e-05
13 *167:B *162:B1 0.000128517
14 *167:B *163:A 6.05161e-06
15 *167:B *163:B 8.46829e-05
16 *167:B *193:A 0
17 *167:B *29:16 0.000166503
18 *167:B *29:22 0
19 *167:B *29:24 5.52302e-05
20 *167:B *37:16 0.000135254
21 *170:D *170:A 8.46259e-06
22 *170:D *170:C 0.000899873
23 *171:A3 *166:A 6.8445e-06
24 *171:A3 *170:C 0.000360887
25 *171:A3 *171:A2 3.69047e-06
26 *171:A3 *26:8 0.000186765
27 *21:10 *162:B1 3.48705e-05
28 *21:10 *163:A 1.98839e-05
29 *21:10 *163:B 9.60875e-05
30 *21:10 *163:C 9.90367e-05
31 *21:10 *23:10 0.00011891
32 *21:23 *22:18 0.000320024
33 *21:27 *40:34 1.90303e-05
34 *164:A_N *21:23 0.000200451
35 *164:A_N *21:27 5.76121e-05
36 *179:A *170:D 0
*RES
1 *163:X *21:4 9.3 
2 *21:4 *21:10 11.6071 
3 *21:10 *166:B 19.3893 
4 *21:10 *21:23 9.55357 
5 *21:23 *21:27 9.14286 
6 *21:27 *171:A3 20.6571 
7 *21:27 *170:D 25.7643 
8 *21:23 *164:B 9.3 
9 *21:4 *167:B 27.3714 
*END

*D_NET *22 0.00394905
*CONN
*I *165:A I *D sky130_fd_sc_hd__clkbuf_1
*I *164:X O *D sky130_fd_sc_hd__and2b_1
*CAP
1 *165:A 0
2 *164:X 0.00116387
3 *22:18 0.00116387
4 *22:18 *161:A 0.000564322
5 *22:18 *187:A 9.43757e-05
6 *22:18 *23:10 0.000154104
7 *22:18 *39:12 0.000488493
8 *21:23 *22:18 0.000320024
*RES
1 *164:X *22:18 40.9429 
2 *22:18 *165:A 9.3 
*END

*D_NET *23 0.0068134
*CONN
*I *168:A I *D sky130_fd_sc_hd__nor2_1
*I *169:B I *D sky130_fd_sc_hd__xnor2_1
*I *166:Y O *D sky130_fd_sc_hd__nor2_1
*CAP
1 *168:A 0.000204538
2 *169:B 0.000785886
3 *166:Y 0.000736602
4 *23:10 0.00172703
5 *168:A *168:B 0.000624791
6 *168:A *25:14 0.000712142
7 *168:A *29:16 1.64616e-05
8 *168:A *30:24 0.0001008
9 *168:A *33:20 2.44318e-05
10 *169:B *167:A 0.000529227
11 *169:B *36:14 5.20751e-05
12 *169:B *41:35 0.000387652
13 *23:10 *176:B 0
14 *23:10 *26:8 5.49995e-05
15 *23:10 *30:24 1.52978e-05
16 *23:10 *39:12 0
17 *166:B *23:10 0.000366252
18 *176:A *169:B 0.000202201
19 *21:10 *23:10 0.00011891
20 *22:18 *23:10 0.000154104
*RES
1 *166:Y *23:10 28.7286 
2 *23:10 *169:B 31.675 
3 *23:10 *168:A 22.8714 
*END

*D_NET *24 0.00327984
*CONN
*I *168:B I *D sky130_fd_sc_hd__nor2_1
*I *167:X O *D sky130_fd_sc_hd__and2_1
*CAP
1 *168:B 0.000270403
2 *167:X 0.000270403
3 *168:B *25:14 1.38323e-05
4 *168:B *29:16 0.000195555
5 *168:B *30:24 0.000622874
6 *168:B *33:20 0.00128198
7 *168:A *168:B 0.000624791
*RES
1 *167:X *168:B 42.1893 
*END

*D_NET *25 0.00563552
*CONN
*I *172:A I *D sky130_fd_sc_hd__and2_1
*I *174:B I *D sky130_fd_sc_hd__xor2_1
*I *170:X O *D sky130_fd_sc_hd__or4_1
*CAP
1 *172:A 0.000210557
2 *174:B 0.000168201
3 *170:X 0.00091158
4 *25:14 0.00129034
5 *172:A *172:B 9.90431e-05
6 *172:A *173:A 5.75764e-05
7 *172:A *30:24 7.04554e-05
8 *174:B *172:B 0
9 *174:B *173:A 0
10 *174:B *33:20 9.6788e-05
11 *174:B *36:14 1.02504e-05
12 *25:14 *173:A 0.000227923
13 *25:14 *193:A 9.66977e-05
14 *25:14 *29:16 1.13883e-05
15 *25:14 *30:24 0.00142783
16 *25:14 *33:20 0.000130928
17 out[1] *172:A 9.99853e-05
18 *168:A *25:14 0.000712142
19 *168:B *25:14 1.38323e-05
*RES
1 *170:X *25:14 40.1214 
2 *25:14 *174:B 21.1571 
3 *25:14 *172:A 13.9607 
*END

*D_NET *26 0.0066213
*CONN
*I *172:B I *D sky130_fd_sc_hd__and2_1
*I *171:Y O *D sky130_fd_sc_hd__o31ai_1
*CAP
1 *172:B 0.000809109
2 *171:Y 0.00160074
3 *26:8 0.00240985
4 *172:B *173:A 6.05161e-06
5 *172:B *189:A 0.000899867
6 *172:B *190:A 0.000105826
7 *172:B *33:20 1.21258e-05
8 *172:B *36:14 0
9 *26:8 *166:A 0.000337526
10 *26:8 *171:B1 9.93955e-05
11 *171:A3 *26:8 0.000186765
12 *172:A *172:B 9.90431e-05
13 *174:B *172:B 0
14 *23:10 *26:8 5.49995e-05
*RES
1 *171:Y *26:8 41.0321 
2 *26:8 *172:B 31.5679 
*END

*D_NET *27 0.00314772
*CONN
*I *173:A I *D sky130_fd_sc_hd__clkbuf_1
*I *172:X O *D sky130_fd_sc_hd__and2_1
*CAP
1 *173:A 0.000566396
2 *172:X 0.000566396
3 *173:A *160:A 0.000386887
4 *173:A *174:A 0
5 *173:A *193:A 0.000695783
6 *173:A *30:24 0.000241405
7 *173:A *33:20 0.000354934
8 *173:A *36:14 0
9 *172:A *173:A 5.75764e-05
10 *172:B *173:A 6.05161e-06
11 *174:B *173:A 0
12 *176:A *173:A 4.43698e-05
13 *25:14 *173:A 0.000227923
*RES
1 *172:X *173:A 43.3679 
*END

*D_NET *28 0.00287923
*CONN
*I *176:B I *D sky130_fd_sc_hd__nor2_1
*I *175:X O *D sky130_fd_sc_hd__and2_1
*CAP
1 *176:B 0.000866003
2 *175:X 0.000866003
3 *176:B *37:12 0.00079415
4 *176:B *37:40 0.000353073
5 *23:10 *176:B 0
*RES
1 *175:X *176:B 40.0464 
*END

*D_NET *29 0.0112187
*CONN
*I *175:B I *D sky130_fd_sc_hd__and2_1
*I *160:B I *D sky130_fd_sc_hd__nor2_1
*I *177:A I *D sky130_fd_sc_hd__clkbuf_1
*I *162:A2 I *D sky130_fd_sc_hd__o31a_1
*I *163:B I *D sky130_fd_sc_hd__or4_2
*I *178:X O *D sky130_fd_sc_hd__dlymetal6s2s_1
*CAP
1 *175:B 2.43937e-05
2 *160:B 0.000323827
3 *177:A 0.000165978
4 *162:A2 0.000216338
5 *163:B 0.000132812
6 *178:X 0.00176293
7 *29:35 0.000489261
8 *29:24 0.000487185
9 *29:22 0.000800526
10 *29:16 0.00201659
11 *160:B *160:A 0.000569371
12 *162:A2 *162:A1 0.000314975
13 *162:A2 *162:B1 0.000314975
14 *175:B *37:40 5.33005e-05
15 *29:16 *170:B 1.93027e-05
16 *29:16 *193:A 0
17 *29:16 *33:20 0.00136961
18 *29:16 *37:40 0.000313235
19 *29:16 *41:35 0.000121573
20 *29:22 *162:B1 0
21 *29:22 *193:A 0.000465257
22 *29:24 *162:B1 9.99644e-06
23 *29:35 *162:A1 0.000167973
24 *29:35 *162:B1 0.000171484
25 *167:B *163:B 8.46829e-05
26 *167:B *29:16 0.000166503
27 *167:B *29:22 0
28 *167:B *29:24 5.52302e-05
29 *168:A *29:16 1.64616e-05
30 *168:B *29:16 0.000195555
31 *19:12 *160:B 0.000281938
32 *21:10 *163:B 9.60875e-05
33 *25:14 *29:16 1.13883e-05
*RES
1 *178:X *29:16 46.2286 
2 *29:16 *29:22 14.8929 
3 *29:22 *29:24 3 
4 *29:24 *163:B 11.0679 
5 *29:24 *29:35 8.57143 
6 *29:35 *162:A2 21.5143 
7 *29:35 *177:A 16.3893 
8 *29:22 *160:B 17.5679 
9 *29:16 *175:B 9.83571 
*END

*D_NET *30 0.00430498
*CONN
*I *186:A I *D sky130_fd_sc_hd__buf_2
*I *176:Y O *D sky130_fd_sc_hd__nor2_1
*CAP
1 *186:A 0
2 *176:Y 0.000523583
3 *30:24 0.000523583
4 *30:24 *167:A 0.00014285
5 *30:24 *193:A 0.000355364
6 *30:24 *33:20 0.000204749
7 *168:A *30:24 0.0001008
8 *168:B *30:24 0.000622874
9 *172:A *30:24 7.04554e-05
10 *173:A *30:24 0.000241405
11 *176:A *30:24 7.61932e-05
12 *23:10 *30:24 1.52978e-05
13 *25:14 *30:24 0.00142783
*RES
1 *176:Y *30:24 47.3179 
2 *30:24 *186:A 9.3 
*END

*D_NET *31 0.00144692
*CONN
*I *187:A I *D sky130_fd_sc_hd__buf_2
*I *161:Y O *D sky130_fd_sc_hd__xnor2_1
*CAP
1 *187:A 0.000484274
2 *161:Y 0.000484274
3 *187:A *188:A 7.79058e-05
4 *187:A *189:A 0.000153047
5 *187:A *190:A 0.000153047
6 *22:18 *187:A 9.43757e-05
*RES
1 *161:Y *187:A 35.0107 
*END

*D_NET *32 0.000407813
*CONN
*I *188:A I *D sky130_fd_sc_hd__buf_2
*I *165:X O *D sky130_fd_sc_hd__clkbuf_1
*CAP
1 *188:A 0.000161928
2 *165:X 0.000161928
3 out[3] *188:A 6.05161e-06
4 *187:A *188:A 7.79058e-05
*RES
1 *165:X *188:A 21.5107 
*END

*D_NET *33 0.00761926
*CONN
*I *189:A I *D sky130_fd_sc_hd__buf_2
*I *168:Y O *D sky130_fd_sc_hd__nor2_1
*CAP
1 *189:A 0.000358303
2 *168:Y 0.000919638
3 *33:20 0.00127794
4 *189:A *190:A 0.000293662
5 *33:20 *193:A 0.00021492
6 out[0] *33:20 4.13122e-06
7 out[3] *189:A 2.22043e-05
8 *168:A *33:20 2.44318e-05
9 *168:B *33:20 0.00128198
10 *172:B *189:A 0.000899867
11 *172:B *33:20 1.21258e-05
12 *173:A *33:20 0.000354934
13 *174:B *33:20 9.6788e-05
14 *187:A *189:A 0.000153047
15 *25:14 *33:20 0.000130928
16 *29:16 *33:20 0.00136961
17 *30:24 *33:20 0.000204749
*RES
1 *168:Y *33:20 48.2464 
2 *33:20 *189:A 25.9964 
*END

*D_NET *34 0.00192748
*CONN
*I *190:A I *D sky130_fd_sc_hd__buf_2
*I *169:Y O *D sky130_fd_sc_hd__xnor2_1
*CAP
1 *190:A 0.000633006
2 *169:Y 0.000633006
3 out[2] *190:A 6.76337e-05
4 out[3] *190:A 1.90936e-05
5 out[4] *190:A 2.22043e-05
6 *172:B *190:A 0.000105826
7 *187:A *190:A 0.000153047
8 *189:A *190:A 0.000293662
*RES
1 *169:Y *190:A 42.225 
*END

*D_NET *35 0.00236594
*CONN
*I *191:A I *D sky130_fd_sc_hd__buf_2
*I *173:X O *D sky130_fd_sc_hd__clkbuf_1
*CAP
1 *191:A 0.000907215
2 *173:X 0.000907215
3 *191:A *162:B1 0
4 *191:A *193:A 0.00013787
5 *191:A *36:14 0.000185124
6 *191:A *43:8 0.000228514
*RES
1 *173:X *191:A 45.6714 
*END

*D_NET *36 0.00308133
*CONN
*I *192:A I *D sky130_fd_sc_hd__buf_2
*I *174:X O *D sky130_fd_sc_hd__xor2_1
*CAP
1 *192:A 0
2 *174:X 0.00106083
3 *36:14 0.00106083
4 *36:14 *174:A 0.000712225
5 *169:B *36:14 5.20751e-05
6 *172:B *36:14 0
7 *173:A *36:14 0
8 *174:B *36:14 1.02504e-05
9 *191:A *36:14 0.000185124
*RES
1 *174:X *36:14 40.8714 
2 *36:14 *192:A 9.3 
*END

*D_NET *37 0.01081
*CONN
*I *160:A I *D sky130_fd_sc_hd__nor2_1
*I *175:A I *D sky130_fd_sc_hd__and2_1
*I *163:A I *D sky130_fd_sc_hd__or4_2
*I *162:A1 I *D sky130_fd_sc_hd__o31a_1
*I *179:X O *D sky130_fd_sc_hd__buf_1
*CAP
1 *160:A 0.000550504
2 *175:A 0
3 *163:A 3.00887e-05
4 *162:A1 0.000344607
5 *179:X 0.000710641
6 *37:40 0.000722065
7 *37:16 0.000526053
8 *37:12 0.00103356
9 *160:A *174:A 0
10 *160:A *193:A 1.00375e-05
11 *162:A1 *162:A3 0.000989176
12 *162:A1 *38:12 3.17148e-05
13 *163:A *162:B1 9.60875e-05
14 *163:A *163:C 5.52238e-05
15 *37:12 *170:B 3.57163e-05
16 *37:12 *41:35 0.00178771
17 *37:16 *38:10 0.000248486
18 *37:16 *38:12 0.000162125
19 *37:16 *41:35 3.17148e-05
20 *37:40 *41:35 4.08637e-05
21 *160:B *160:A 0.000569371
22 *161:B *160:A 2.26973e-05
23 *162:A2 *162:A1 0.000314975
24 *167:B *162:A1 1.97381e-05
25 *167:B *163:A 6.05161e-06
26 *167:B *37:16 0.000135254
27 *173:A *160:A 0.000386887
28 *175:B *37:40 5.33005e-05
29 *176:A *160:A 0.00016336
30 *176:B *37:12 0.00079415
31 *176:B *37:40 0.000353073
32 *19:12 *160:A 8.36945e-05
33 *21:10 *163:A 1.98839e-05
34 *29:16 *37:40 0.000313235
35 *29:35 *162:A1 0.000167973
*RES
1 *179:X *37:12 37.8357 
2 *37:12 *37:16 9.78571 
3 *37:16 *162:A1 26.9071 
4 *37:16 *163:A 14.7464 
5 *37:12 *37:40 5.07143 
6 *37:40 *175:A 9.3 
7 *37:40 *160:A 31.4964 
*END

*D_NET *38 0.00847953
*CONN
*I *161:A I *D sky130_fd_sc_hd__xnor2_1
*I *163:C I *D sky130_fd_sc_hd__or4_2
*I *162:A3 I *D sky130_fd_sc_hd__o31a_1
*I *180:X O *D sky130_fd_sc_hd__buf_1
*CAP
1 *161:A 0.000238637
2 *163:C 1.75051e-05
3 *162:A3 0.000376037
4 *180:X 0.00142305
5 *38:12 0.000513887
6 *38:10 0.00178203
7 *162:A3 *43:8 0.000180777
8 *163:C *162:B1 2.44318e-05
9 *38:10 *167:A 0.000217082
10 *38:10 *41:35 4.33438e-05
11 *38:12 *39:12 0
12 *162:A1 *162:A3 0.000989176
13 *162:A1 *38:12 3.17148e-05
14 *163:A *163:C 5.52238e-05
15 *164:A_N *162:A3 0.000674689
16 *176:A *38:10 0.00083797
17 *21:10 *163:C 9.90367e-05
18 *22:18 *161:A 0.000564322
19 *37:16 *38:10 0.000248486
20 *37:16 *38:12 0.000162125
*RES
1 *180:X *38:10 34.7286 
2 *38:10 *38:12 2.55357 
3 *38:12 *162:A3 27.5321 
4 *38:12 *163:C 14.7464 
5 *38:10 *161:A 19.2643 
*END

*D_NET *39 0.00563421
*CONN
*I *162:B1 I *D sky130_fd_sc_hd__o31a_1
*I *163:D I *D sky130_fd_sc_hd__or4_2
*I *181:X O *D sky130_fd_sc_hd__buf_1
*CAP
1 *162:B1 0.000752302
2 *163:D 0
3 *181:X 0.00143038
4 *39:12 0.00218268
5 *162:B1 *193:A 0
6 *162:A2 *162:B1 0.000314975
7 *163:A *162:B1 9.60875e-05
8 *163:C *162:B1 2.44318e-05
9 *167:B *162:B1 0.000128517
10 *191:A *162:B1 0
11 *21:10 *162:B1 3.48705e-05
12 *22:18 *39:12 0.000488493
13 *23:10 *39:12 0
14 *29:22 *162:B1 0
15 *29:24 *162:B1 9.99644e-06
16 *29:35 *162:B1 0.000171484
17 *38:12 *39:12 0
*RES
1 *181:X *39:12 35.7821 
2 *39:12 *163:D 9.3 
3 *39:12 *162:B1 34.9964 
*END

*D_NET *40 0.00813299
*CONN
*I *170:A I *D sky130_fd_sc_hd__or4_1
*I *167:A I *D sky130_fd_sc_hd__and2_1
*I *171:A1 I *D sky130_fd_sc_hd__o31ai_1
*I *166:A I *D sky130_fd_sc_hd__nor2_1
*I *182:X O *D sky130_fd_sc_hd__buf_1
*CAP
1 *170:A 0.000103629
2 *167:A 0.000569222
3 *171:A1 0
4 *166:A 0.000654026
5 *182:X 0
6 *40:34 0.00149784
7 *40:10 0.00084782
8 *40:4 0.00101879
9 *166:A *171:A2 7.67334e-05
10 *166:A *171:B1 0.000185118
11 *170:A *170:C 8.51444e-05
12 *40:10 *41:10 3.67279e-06
13 *40:10 *41:21 0.000117082
14 *40:34 *170:C 0.000860736
15 *169:B *167:A 0.000529227
16 *170:D *170:A 8.46259e-06
17 *171:A3 *166:A 6.8445e-06
18 *176:A *167:A 0.000852156
19 *21:27 *40:34 1.90303e-05
20 *26:8 *166:A 0.000337526
21 *30:24 *167:A 0.00014285
22 *38:10 *167:A 0.000217082
*RES
1 *182:X *40:4 9.3 
2 *40:4 *40:10 13.375 
3 *40:10 *166:A 22.1929 
4 *40:10 *171:A1 9.3 
5 *40:4 *40:34 20.1696 
6 *40:34 *167:A 31.7732 
7 *40:34 *170:A 16.2018 
*END

*D_NET *41 0.00889131
*CONN
*I *170:B I *D sky130_fd_sc_hd__or4_1
*I *169:A I *D sky130_fd_sc_hd__xnor2_1
*I *171:A2 I *D sky130_fd_sc_hd__o31ai_1
*I *183:X O *D sky130_fd_sc_hd__buf_1
*CAP
1 *170:B 0.000420675
2 *169:A 0
3 *171:A2 2.87608e-05
4 *183:X 0.000225538
5 *41:35 0.00149367
6 *41:21 0.00257341
7 *41:10 0.000913363
8 *166:A *171:A2 7.67334e-05
9 *169:B *41:35 0.000387652
10 *171:A3 *171:A2 3.69047e-06
11 *176:A *41:35 0.000566849
12 *179:A *170:B 0
13 *181:A *41:21 0
14 *29:16 *170:B 1.93027e-05
15 *29:16 *41:35 0.000121573
16 *37:12 *170:B 3.57163e-05
17 *37:12 *41:35 0.00178771
18 *37:16 *41:35 3.17148e-05
19 *37:40 *41:35 4.08637e-05
20 *38:10 *41:35 4.33438e-05
21 *40:10 *41:10 3.67279e-06
22 *40:10 *41:21 0.000117082
*RES
1 *183:X *41:10 16.8 
2 *41:10 *171:A2 14.5411 
3 *41:10 *41:21 12.5714 
4 *41:21 *41:35 43.2321 
5 *41:35 *169:A 9.3 
6 *41:21 *170:B 20.05 
*END

*D_NET *42 0.00482724
*CONN
*I *170:C I *D sky130_fd_sc_hd__or4_1
*I *171:B1 I *D sky130_fd_sc_hd__o31ai_1
*I *184:X O *D sky130_fd_sc_hd__clkbuf_1
*CAP
1 *170:C 0.000465679
2 *171:B1 3.54936e-05
3 *184:X 0.000529959
4 *42:10 0.00103113
5 *42:10 *43:8 0.000273822
6 *166:A *171:B1 0.000185118
7 *170:A *170:C 8.51444e-05
8 *170:D *170:C 0.000899873
9 *171:A3 *170:C 0.000360887
10 *26:8 *171:B1 9.93955e-05
11 *40:34 *170:C 0.000860736
*RES
1 *184:X *42:10 21.6929 
2 *42:10 *171:B1 15.5679 
3 *42:10 *170:C 30.925 
*END

*D_NET *43 0.00615627
*CONN
*I *174:A I *D sky130_fd_sc_hd__xor2_1
*I *185:X O *D sky130_fd_sc_hd__buf_1
*CAP
1 *174:A 0.000899389
2 *185:X 0.00145347
3 *43:8 0.00235286
4 *174:A *193:A 0
5 *160:A *174:A 0
6 *162:A3 *43:8 0.000180777
7 *164:A_N *43:8 5.52238e-05
8 *173:A *174:A 0
9 *191:A *43:8 0.000228514
10 *36:14 *174:A 0.000712225
11 *42:10 *43:8 0.000273822
*RES
1 *185:X *43:8 38.1571 
2 *43:8 *174:A 32.7464 
*END

*D_NET *44 0.00326216
*CONN
*I *193:A I *D sky130_fd_sc_hd__buf_2
*I *177:X O *D sky130_fd_sc_hd__clkbuf_1
*CAP
1 *193:A 0.000643115
2 *177:X 0.000643115
3 *160:A *193:A 1.00375e-05
4 *162:B1 *193:A 0
5 *167:B *193:A 0
6 *173:A *193:A 0.000695783
7 *174:A *193:A 0
8 *191:A *193:A 0.00013787
9 *25:14 *193:A 9.66977e-05
10 *29:16 *193:A 0
11 *29:22 *193:A 0.000465257
12 *30:24 *193:A 0.000355364
13 *33:20 *193:A 0.00021492
*RES
1 *177:X *193:A 46.3143 
*END
